[Format]      =  4.0
[Frequency]   =  0
[Precision]   =  1e-008
[MinAngle]    =  30
[DoSmartMesh] =  1
[Depth]       =  140
[LengthUnits] =  millimeters
[ProblemType] =  planar
[Coordinates] =  cartesian
[ACSolver]    =  0
[PrevType]    =  0
[PrevSoln]    =  ""
[Comment]     =  "Add comments here."
[PointProps]   = 0
[BdryProps]   = 1
  <BeginBdry>
    <BdryName> = "A=0"
    <BdryType> = 0
    <A_0> = 0
    <A_1> = 0
    <A_2> = 0
    <Phi> = 0
    <c0> = 0
    <c0i> = 0
    <c1> = 0
    <c1i> = 0
    <Mu_ssd> = 0
    <Sigma_ssd> = 0
    <innerangle> = 0
    <outerangle> = 0
  <EndBdry>
[BlockProps]  = 4
  <BeginBlock>
    <BlockName> = "M250-50A"
    <Mu_x> = 1
    <Mu_y> = 1
    <H_c> = 0
    <H_cAngle> = 0
    <J_re> = 0
    <J_im> = 0
    <Sigma> = 0
    <d_lam> = 0
    <Phi_h> = 0
    <Phi_hx> = 0
    <Phi_hy> = 0
    <LamType> = 0
    <LamFill> = 1
    <NStrands> = 0
    <WireD> = 0
    <BHPoints> = 11
      0	0
      0.40000000000000002	50
      0.84999999999999998	100
      1.1000000000000001	200
      1.3500000000000001	500
      1.52	1000
      1.5900000000000001	2500
      1.6899999999999999	5000
      1.8100000000000001	10000
      1.95	30000
      2.1000000000000001	100000
  <EndBlock>
  <BeginBlock>
    <BlockName> = "Aluminio"
    <Mu_x> = 1
    <Mu_y> = 1
    <H_c> = 0
    <H_cAngle> = 0
    <J_re> = 0
    <J_im> = 0
    <Sigma> = 35.399999999999999
    <d_lam> = 0
    <Phi_h> = 0
    <Phi_hx> = 0
    <Phi_hy> = 0
    <LamType> = 0
    <LamFill> = 1
    <NStrands> = 0
    <WireD> = 0
    <BHPoints> = 0
  <EndBlock>
  <BeginBlock>
    <BlockName> = "Cobre"
    <Mu_x> = 1
    <Mu_y> = 1
    <H_c> = 0
    <H_cAngle> = 0
    <J_re> = 0
    <J_im> = 0
    <Sigma> = 58
    <d_lam> = 0
    <Phi_h> = 0
    <Phi_hx> = 0
    <Phi_hy> = 0
    <LamType> = 0
    <LamFill> = 1
    <NStrands> = 0
    <WireD> = 0
    <BHPoints> = 0
  <EndBlock>
  <BeginBlock>
    <BlockName> = "Air"
    <Mu_x> = 1
    <Mu_y> = 1
    <H_c> = 0
    <H_cAngle> = 0
    <J_re> = 0
    <J_im> = 0
    <Sigma> = 0
    <d_lam> = 0
    <Phi_h> = 0
    <Phi_hx> = 0
    <Phi_hy> = 0
    <LamType> = 0
    <LamFill> = 1
    <NStrands> = 0
    <WireD> = 0
    <BHPoints> = 0
  <EndBlock>
[CircuitProps]  = 3
  <BeginCircuit>
    <CircuitName> = "PhaseA"
    <TotalAmps_re> = 4.8945389996867501
    <TotalAmps_im> = 0
    <CircuitType> = 1
  <EndCircuit>
  <BeginCircuit>
    <CircuitName> = "PhaseB"
    <TotalAmps_re> = -2.4472694998433751
    <TotalAmps_im> = -0
    <CircuitType> = 1
  <EndCircuit>
  <BeginCircuit>
    <CircuitName> = "PhaseC"
    <TotalAmps_re> = -2.4472694998433751
    <TotalAmps_im> = -0
    <CircuitType> = 1
  <EndCircuit>
[NumPoints] = 414
110	0	0	0
-110	0	0	0
91.400000000000006	0	0	0
-91.400000000000006	0	0	0
76.599999999999994	0	0	0
-76.599999999999994	0	0	0
57.5	0	0	0
-57.5	0	0	0
57	0	0	0
-57	0	0	0
37.600000000000001	0	0	0
-37.600000000000001	0	0	0
30	0	0	0
-30	0	0	0
57.494434513263975	-0.80000000000000004	0	0
76.592585803756876	-1.0657391304347825	0	0
57.494434513263975	0.80000000000000004	0	0
76.592585803756876	1.0657391304347825	0	0
57.345375426094769	4.2140143853867178	0	0
76.394013176327988	5.6138000334021321	0	0
57.205926237698513	5.807925902333511	0	0
76.208242605351415	7.737167375978208	0	0
56.759883405848583	9.1959575768091888	0	0
75.614035980660887	12.250614789279719	0	0
56.4820463215815	10.771649981628721	0	0
75.24390866492422	14.349711105961044	0	0
55.742414400329245	14.10791397840114	0	0
74.258590314177738	18.794194969487432	0	0
55.328303928165219	15.65339530046365	0	0
73.706923146042698	20.853044869835053	0	0
54.300711963033343	18.912500636026092	0	0
72.337991936840936	25.194739977732148	0	0
53.753479733712275	20.416008829283545	0	0
71.608983436562781	27.197674370836861	0	0
52.445748320032429	23.573151744130779	0	0
69.866857761991014	31.403537801746392	0	0
51.76955910124731	25.023244203389417	0	0
68.966056124444236	33.335313147471815	0	0
50.191640864707402	28.054396933604433	0	0
66.863994612810203	37.373335741114772	0	0
49.391640864707405	29.440037579659542	0	0
65.798255482375424	39.219250062642097	0	0
47.555544715860592	32.322131222705345	0	0
63.352256091042108	43.058700028856165	0	0
46.637822417698914	33.632774493567737	0	0
62.129690386012811	44.80470480360502	0	0
44.55752215690309	36.343874576565035	0	0
59.358368647283065	48.41636160982403	0	0
43.529061981404624	37.569545685555404	0	0
57.988280830879894	50.049168687192065	0	0
41.220389949764076	40.089019099865595	0	0
54.912728176555269	53.405545444342685	0	0
40.089019099865595	41.220389949764069	0	0
53.405545444342685	54.912728176555262	0	0
37.569545685555411	43.529061981404624	0	0
50.049168687192072	57.988280830879894	0	0
36.343874576565035	44.557522156903083	0	0
48.41636160982403	59.358368647283058	0	0
33.632774493567744	46.637822417698906	0	0
44.804704803605027	62.129690386012804	0	0
32.322131222705352	47.555544715860584	0	0
43.058700028856173	63.352256091042101	0	0
29.440037579659545	49.391640864707398	0	0
39.219250062642104	65.79825548237541	0	0
28.054396933604444	50.191640864707395	0	0
37.373335741114786	66.863994612810203	0	0
25.023244203389417	51.76955910124731	0	0
33.335313147471815	68.966056124444236	0	0
23.573151744130779	52.445748320032429	0	0
31.403537801746392	69.866857761991014	0	0
20.416008829283552	53.753479733712268	0	0
27.197674370836872	71.608983436562781	0	0
18.912500636026099	54.300711963033343	0	0
25.194739977732155	72.337991936840936	0	0
15.653395300463663	55.328303928165212	0	0
20.85304486983507	73.706923146042698	0	0
14.10791397840115	55.742414400329245	0	0
18.794194969487446	74.258590314177738	0	0
10.771649981628729	56.4820463215815	0	0
14.349711105961052	75.24390866492422	0	0
9.1959575768091923	56.759883405848583	0	0
12.250614789279723	75.614035980660887	0	0
5.8079259023335101	57.205926237698513	0	0
7.7371673759782054	76.208242605351415	0	0
4.2140143853867151	57.345375426094769	0	0
5.6138000334021276	76.394013176327988	0	0
0.80000000000000449	57.494434513263975	0	0
1.0657391304347885	76.592585803756876	0	0
-0.79999999999999749	57.494434513263975	0	0
-1.0657391304347792	76.592585803756876	0	0
-4.214014385386708	57.345375426094769	0	0
-5.6138000334021179	76.394013176327988	0	0
-5.807925902333503	57.205926237698513	0	0
-7.7371673759781956	76.208242605351415	0	0
-9.1959575768091852	56.759883405848583	0	0
-12.250614789279714	75.614035980660887	0	0
-10.77164998162872	56.4820463215815	0	0
-14.349711105961042	75.24390866492422	0	0
-14.107913978401145	55.742414400329245	0	0
-18.794194969487435	74.258590314177738	0	0
-15.653395300463657	55.328303928165212	0	0
-20.85304486983506	73.706923146042698	0	0
-18.912500636026078	54.300711963033351	0	0
-25.19473997773213	72.337991936840936	0	0
-20.416008829283534	53.753479733712275	0	0
-27.197674370836843	71.608983436562781	0	0
-23.573151744130772	52.445748320032429	0	0
-31.403537801746381	69.866857761991028	0	0
-25.023244203389403	51.76955910124731	0	0
-33.335313147471794	68.966056124444236	0	0
-28.054396933604437	50.191640864707402	0	0
-37.373335741114779	66.863994612810203	0	0
-29.440037579659514	49.391640864707412	0	0
-39.219250062642061	65.798255482375438	0	0
-32.322131222705366	47.555544715860577	0	0
-43.058700028856187	63.352256091042086	0	0
-33.63277449356773	46.637822417698914	0	0
-44.804704803605013	62.129690386012811	0	0
-36.343874576565049	44.557522156903076	0	0
-48.416361609824044	59.358368647283051	0	0
-37.569545685555397	43.529061981404631	0	0
-50.049168687192051	57.988280830879901	0	0
-40.089019099865602	41.220389949764069	0	0
-53.4055454443427	54.912728176555262	0	0
-41.220389949764062	40.08901909986561	0	0
-54.912728176555255	53.405545444342707	0	0
-43.529061981404624	37.569545685555404	0	0
-57.988280830879894	50.049168687192065	0	0
-44.557522156903069	36.343874576565057	0	0
-59.358368647283044	48.416361609824051	0	0
-46.637822417698928	33.632774493567716	0	0
-62.129690386012825	44.804704803604992	0	0
-47.555544715860584	32.322131222705352	0	0
-63.352256091042101	43.058700028856173	0	0
-49.391640864707391	29.440037579659545	0	0
-65.79825548237541	39.219250062642104	0	0
-50.191640864707381	28.054396933604469	0	0
-66.863994612810174	37.373335741114822	0	0
-51.76955910124731	25.02324420338941	0	0
-68.966056124444236	33.335313147471808	0	0
-52.445748320032422	23.57315174413079	0	0
-69.866857761991014	31.40353780174641	0	0
-53.753479733712275	20.416008829283545	0	0
-71.608983436562781	27.197674370836861	0	0
-54.300711963033336	18.912500636026113	0	0
-72.337991936840922	25.194739977732176	0	0
-55.328303928165226	15.653395300463627	0	0
-73.706923146042712	20.853044869835024	0	0
-55.742414400329245	14.107913978401143	0	0
-74.258590314177738	18.794194969487435	0	0
-56.4820463215815	10.771649981628705	0	0
-75.24390866492422	14.349711105961022	0	0
-56.759883405848583	9.1959575768091959	0	0
-75.614035980660887	12.250614789279727	0	0
-57.205926237698513	5.8079259023335004	0	0
-76.208242605351415	7.7371673759781929	0	0
-57.345375426094769	4.2140143853867311	0	0
-76.394013176327988	5.6138000334021489	0	0
-57.494434513263975	0.79999999999999527	0	0
-76.592585803756876	1.0657391304347761	0	0
-57.494434513263975	-0.79999999999998117	0	0
-76.592585803756876	-1.0657391304347574	0	0
-57.345375426094769	-4.2140143853867169	0	0
-76.394013176327988	-5.6138000334021303	0	0
-57.205926237698513	-5.807925902333487	0	0
-76.208242605351415	-7.7371673759781743	0	0
-56.759883405848591	-9.1959575768091817	0	0
-75.614035980660901	-12.250614789279709	0	0
-56.482046321581507	-10.771649981628691	0	0
-75.24390866492422	-14.349711105961003	0	0
-55.742414400329253	-14.107913978401129	0	0
-74.258590314177752	-18.794194969487414	0	0
-55.328303928165226	-15.653395300463615	0	0
-73.706923146042712	-20.853044869835006	0	0
-54.300711963033343	-18.912500636026099	0	0
-72.337991936840936	-25.194739977732159	0	0
-53.753479733712282	-20.41600882928353	0	0
-71.608983436562795	-27.19767437083684	0	0
-52.445748320032436	-23.573151744130755	0	0
-69.866857761991028	-31.40353780174636	0	0
-51.769559101247324	-25.023244203389375	0	0
-68.966056124444265	-33.335313147471759	0	0
-50.191640864707388	-28.054396933604458	0	0
-66.863994612810188	-37.373335741114801	0	0
-49.391640864707405	-29.440037579659535	0	0
-65.798255482375424	-39.219250062642089	0	0
-47.555544715860592	-32.322131222705345	0	0
-63.352256091042108	-43.058700028856158	0	0
-46.637822417698935	-33.632774493567709	0	0
-62.12969038601284	-44.804704803604977	0	0
-44.557522156903097	-36.343874576565021	0	0
-59.358368647283079	-48.416361609824008	0	0
-43.529061981404652	-37.569545685555376	0	0
-57.98828083087993	-50.049168687192029	0	0
-41.220389949764069	-40.089019099865595	0	0
-54.912728176555262	-53.405545444342685	0	0
-40.08901909986561	-41.220389949764062	0	0
-53.405545444342707	-54.912728176555248	0	0
-37.569545685555411	-43.529061981404624	0	0
-50.049168687192072	-57.988280830879894	0	0
-36.343874576565057	-44.557522156903069	0	0
-48.416361609824051	-59.358368647283044	0	0
-33.632774493567702	-46.637822417698942	0	0
-44.80470480360497	-62.129690386012847	0	0
-32.322131222705337	-47.555544715860599	0	0
-43.058700028856144	-63.352256091042115	0	0
-29.440037579659553	-49.391640864707391	0	0
-39.219250062642118	-65.79825548237541	0	0
-28.054396933604473	-50.191640864707381	0	0
-37.373335741114822	-66.863994612810174	0	0
-25.023244203389439	-51.769559101247303	0	0
-33.335313147471837	-68.966056124444222	0	0
-23.573151744130818	-52.445748320032408	0	0
-31.403537801746445	-69.866857761990985	0	0
-20.416008829283523	-53.753479733712282	0	0
-27.197674370836832	-71.608983436562795	0	0
-18.912500636026095	-54.300711963033343	0	0
-25.194739977732151	-72.337991936840936	0	0
-15.653395300463631	-55.328303928165226	0	0
-20.853044869835028	-73.706923146042712	0	0
-14.107913978401147	-55.742414400329245	0	0
-18.794194969487439	-74.258590314177738	0	0
-10.771649981628709	-56.4820463215815	0	0
-14.349711105961026	-75.24390866492422	0	0
-9.1959575768091995	-56.759883405848583	0	0
-12.250614789279732	-75.614035980660887	0	0
-5.8079259023335039	-57.205926237698513	0	0
-7.7371673759781983	-76.208242605351415	0	0
-4.2140143853867347	-57.345375426094769	0	0
-5.6138000334021543	-76.394013176327988	0	0
-0.79999999999999871	-57.494434513263975	0	0
-1.0657391304347807	-76.592585803756876	0	0
0.79999999999997773	-57.494434513263975	0	0
1.0657391304347528	-76.592585803756876	0	0
4.2140143853867134	-57.345375426094769	0	0
5.6138000334021259	-76.394013176327988	0	0
5.8079259023334826	-57.205926237698513	0	0
7.7371673759781689	-76.208242605351415	0	0
9.1959575768091781	-56.759883405848591	0	0
12.250614789279703	-75.614035980660901	0	0
10.771649981628688	-56.482046321581507	0	0
14.349711105960999	-75.24390866492422	0	0
14.107913978401125	-55.742414400329253	0	0
18.79419496948741	-74.258590314177752	0	0
15.653395300463611	-55.328303928165226	0	0
20.853044869835003	-73.706923146042712	0	0
18.91250063602612	-54.300711963033336	0	0
25.194739977732187	-72.337991936840922	0	0
20.416008829283552	-53.753479733712268	0	0
27.197674370836872	-71.608983436562781	0	0
23.573151744130755	-52.445748320032436	0	0
31.403537801746356	-69.866857761991028	0	0
25.023244203389375	-51.769559101247324	0	0
33.335313147471751	-68.966056124444265	0	0
28.054396933604409	-50.191640864707416	0	0
37.373335741114737	-66.863994612810217	0	0
29.440037579659489	-49.391640864707433	0	0
39.219250062642033	-65.798255482375453	0	0
32.322131222705359	-47.555544715860577	0	0
43.05870002885618	-63.352256091042086	0	0
33.632774493567723	-46.637822417698921	0	0
44.804704803604999	-62.129690386012818	0	0
36.343874576565042	-44.557522156903083	0	0
48.416361609824037	-59.358368647283058	0	0
37.56954568555539	-43.529061981404638	0	0
50.049168687192044	-57.988280830879916	0	0
40.089019099865595	-41.220389949764076	0	0
53.405545444342685	-54.912728176555269	0	0
41.220389949764062	-40.089019099865617	0	0
54.912728176555248	-53.405545444342714	0	0
43.529061981404617	-37.569545685555411	0	0
57.988280830879887	-50.049168687192072	0	0
44.557522156903062	-36.343874576565064	0	0
59.358368647283037	-48.416361609824065	0	0
46.637822417698906	-33.632774493567744	0	0
62.129690386012804	-44.804704803605027	0	0
47.55554471586057	-32.32213122270538	0	0
63.352256091042072	-43.058700028856208	0	0
49.391640864707419	-29.44003757965951	0	0
65.798255482375438	-39.219250062642054	0	0
50.191640864707402	-28.054396933604426	0	0
66.863994612810203	-37.373335741114765	0	0
51.769559101247296	-25.023244203389439	0	0
68.966056124444222	-33.335313147471844	0	0
52.445748320032408	-23.573151744130822	0	0
69.866857761990985	-31.403537801746452	0	0
53.753479733712282	-20.416008829283527	0	0
71.608983436562795	-27.197674370836836	0	0
54.300711963033343	-18.912500636026099	0	0
72.337991936840936	-25.194739977732155	0	0
55.328303928165219	-15.653395300463634	0	0
73.706923146042698	-20.853044869835031	0	0
55.742414400329245	-14.10791397840115	0	0
74.258590314177738	-18.794194969487442	0	0
56.4820463215815	-10.771649981628713	0	0
75.24390866492422	-14.349711105961031	0	0
56.759883405848583	-9.195957576809203	0	0
75.614035980660887	-12.250614789279737	0	0
57.205926237698513	-5.8079259023335075	0	0
76.208242605351415	-7.7371673759782027	0	0
57.345375426094769	-4.2140143853867382	0	0
76.394013176327988	-5.6138000334021587	0	0
37.556214887825469	-1.8140350877192981	0	0
56.933623633139668	-2.75	0	0
37.556214887825469	1.8140350877192981	0	0
56.933623633139668	2.75	0	0
37.018262951988426	6.5884905720082152	0	0
56.11811138998246	9.9878713458635175	0	0
36.210941388090781	10.125597453397708	0	0
54.894246253222725	15.349974862863546	0	0
34.62406073693419	14.660641803314496	0	0
52.488602712905546	22.22490911672676	0	0
33.04990008343399	17.929420081949939	0	0
50.102242147758979	27.180237890190064	0	0
30.493663539043371	21.997647237093716	0	0
46.227096322485963	33.347497141338877	0	0
28.231598784229583	24.83418672085492	0	0
42.797902412262928	37.647570294913045	0	0
24.834186720854923	28.231598784229583	0	0
37.647570294913052	42.797902412262928	0	0
21.997647237093719	30.493663539043371	0	0
33.347497141338884	46.227096322485963	0	0
17.929420081949942	33.04990008343399	0	0
27.180237890190071	50.102242147758979	0	0
14.660641803314496	34.62406073693419	0	0
22.22490911672676	52.488602712905546	0	0
10.125597453397711	36.210941388090781	0	0
15.349974862863553	54.894246253222725	0	0
6.588490572008217	37.018262951988426	0	0
9.9878713458635211	56.11811138998246	0	0
1.8140350877193019	37.556214887825469	0	0
2.7500000000000053	56.933623633139668	0	0
-1.8140350877192972	37.556214887825469	0	0
-2.7499999999999982	56.933623633139668	0	0
-6.5884905720082125	37.018262951988426	0	0
-9.9878713458635122	56.11811138998246	0	0
-10.125597453397708	36.210941388090781	0	0
-15.349974862863546	54.894246253222725	0	0
-14.660641803314491	34.62406073693419	0	0
-22.224909116726753	52.488602712905546	0	0
-17.929420081949932	33.049900083433997	0	0
-27.180237890190053	50.102242147758986	0	0
-21.997647237093719	30.493663539043371	0	0
-33.347497141338884	46.227096322485963	0	0
-24.834186720854913	28.23159878422959	0	0
-37.647570294913031	42.797902412262943	0	0
-28.231598784229572	24.83418672085493	0	0
-42.797902412262914	37.647570294913059	0	0
-30.493663539043357	21.997647237093741	0	0
-46.227096322485934	33.347497141338913	0	0
-33.049900083433997	17.929420081949935	0	0
-50.102242147758986	27.180237890190064	0	0
-34.624060736934183	14.660641803314507	0	0
-52.488602712905539	22.224909116726778	0	0
-36.210941388090788	10.125597453397692	0	0
-54.894246253222732	15.349974862863521	0	0
-37.018262951988426	6.5884905720082108	0	0
-56.11811138998246	9.9878713458635104	0	0
-37.556214887825469	1.8140350877192957	0	0
-56.933623633139668	2.749999999999996	0	0
-37.556214887825469	-1.8140350877192866	0	0
-56.933623633139668	-2.7499999999999822	0	0
-37.018262951988426	-6.5884905720082019	0	0
-56.11811138998246	-9.9878713458634962	0	0
-36.210941388090788	-10.125597453397681	0	0
-54.89424625322274	-15.349974862863505	0	0
-34.62406073693419	-14.660641803314498	0	0
-52.488602712905546	-22.224909116726764	0	0
-33.049900083434004	-17.929420081949928	0	0
-50.102242147758993	-27.18023789019005	0	0
-30.493663539043364	-21.997647237093734	0	0
-46.227096322485949	-33.347497141338899	0	0
-28.231598784229583	-24.834186720854923	0	0
-42.797902412262928	-37.647570294913052	0	0
-24.83418672085492	-28.231598784229583	0	0
-37.647570294913045	-42.797902412262928	0	0
-21.997647237093716	-30.493663539043379	0	0
-33.347497141338877	-46.22709632248597	0	0
-17.929420081949953	-33.049900083433982	0	0
-27.180237890190089	-50.102242147758965	0	0
-14.660641803314494	-34.62406073693419	0	0
-22.224909116726757	-52.488602712905546	0	0
-10.125597453397724	-36.210941388090774	0	0
-15.34997486286357	-54.894246253222718	0	0
-6.5884905720082134	-37.018262951988426	0	0
-9.987871345863514	-56.11811138998246	0	0
-1.8140350877193145	-37.556214887825469	0	0
-2.7500000000000249	-56.933623633139668	0	0
1.8140350877193008	-37.556214887825469	0	0
2.750000000000004	-56.933623633139668	0	0
6.5884905720081672	-37.01826295198844	0	0
9.9878713458634447	-56.118111389982467	0	0
10.125597453397679	-36.210941388090788	0	0
15.349974862863501	-54.89424625322274	0	0
14.660641803314482	-34.624060736934197	0	0
22.224909116726739	-52.488602712905561	0	0
17.929420081949942	-33.04990008343399	0	0
27.180237890190067	-50.102242147758979	0	0
21.997647237093702	-30.493663539043386	0	0
33.347497141338856	-46.227096322485984	0	0
24.83418672085492	-28.231598784229583	0	0
37.647570294913045	-42.797902412262928	0	0
28.231598784229568	-24.834186720854934	0	0
42.797902412262907	-37.647570294913059	0	0
30.493663539043371	-21.997647237093716	0	0
46.227096322485963	-33.347497141338877	0	0
33.049900083434004	-17.929420081949925	0	0
50.102242147758993	-27.180237890190046	0	0
34.624060736934197	-14.660641803314464	0	0
52.488602712905568	-22.224909116726714	0	0
36.210941388090774	-10.125597453397727	0	0
54.894246253222718	-15.349974862863574	0	0
37.018262951988426	-6.5884905720082152	0	0
56.11811138998246	-9.9878713458635175	0	0
[NumSegments] = 200
14	15	-1	0	0	0
16	17	-1	0	0	0
18	19	-1	0	0	0
20	21	-1	0	0	0
22	23	-1	0	0	0
24	25	-1	0	0	0
26	27	-1	0	0	0
28	29	-1	0	0	0
30	31	-1	0	0	0
32	33	-1	0	0	0
34	35	-1	0	0	0
36	37	-1	0	0	0
38	39	-1	0	0	0
40	41	-1	0	0	0
42	43	-1	0	0	0
44	45	-1	0	0	0
46	47	-1	0	0	0
48	49	-1	0	0	0
50	51	-1	0	0	0
52	53	-1	0	0	0
54	55	-1	0	0	0
56	57	-1	0	0	0
58	59	-1	0	0	0
60	61	-1	0	0	0
62	63	-1	0	0	0
64	65	-1	0	0	0
66	67	-1	0	0	0
68	69	-1	0	0	0
70	71	-1	0	0	0
72	73	-1	0	0	0
74	75	-1	0	0	0
76	77	-1	0	0	0
78	79	-1	0	0	0
80	81	-1	0	0	0
82	83	-1	0	0	0
84	85	-1	0	0	0
86	87	-1	0	0	0
88	89	-1	0	0	0
90	91	-1	0	0	0
92	93	-1	0	0	0
94	95	-1	0	0	0
96	97	-1	0	0	0
98	99	-1	0	0	0
100	101	-1	0	0	0
102	103	-1	0	0	0
104	105	-1	0	0	0
106	107	-1	0	0	0
108	109	-1	0	0	0
110	111	-1	0	0	0
112	113	-1	0	0	0
114	115	-1	0	0	0
116	117	-1	0	0	0
118	119	-1	0	0	0
120	121	-1	0	0	0
122	123	-1	0	0	0
124	125	-1	0	0	0
126	127	-1	0	0	0
128	129	-1	0	0	0
130	131	-1	0	0	0
132	133	-1	0	0	0
134	135	-1	0	0	0
136	137	-1	0	0	0
138	139	-1	0	0	0
140	141	-1	0	0	0
142	143	-1	0	0	0
144	145	-1	0	0	0
146	147	-1	0	0	0
148	149	-1	0	0	0
150	151	-1	0	0	0
152	153	-1	0	0	0
154	155	-1	0	0	0
156	157	-1	0	0	0
158	159	-1	0	0	0
160	161	-1	0	0	0
162	163	-1	0	0	0
164	165	-1	0	0	0
166	167	-1	0	0	0
168	169	-1	0	0	0
170	171	-1	0	0	0
172	173	-1	0	0	0
174	175	-1	0	0	0
176	177	-1	0	0	0
178	179	-1	0	0	0
180	181	-1	0	0	0
182	183	-1	0	0	0
184	185	-1	0	0	0
186	187	-1	0	0	0
188	189	-1	0	0	0
190	191	-1	0	0	0
192	193	-1	0	0	0
194	195	-1	0	0	0
196	197	-1	0	0	0
198	199	-1	0	0	0
200	201	-1	0	0	0
202	203	-1	0	0	0
204	205	-1	0	0	0
206	207	-1	0	0	0
208	209	-1	0	0	0
210	211	-1	0	0	0
212	213	-1	0	0	0
214	215	-1	0	0	0
216	217	-1	0	0	0
218	219	-1	0	0	0
220	221	-1	0	0	0
222	223	-1	0	0	0
224	225	-1	0	0	0
226	227	-1	0	0	0
228	229	-1	0	0	0
230	231	-1	0	0	0
232	233	-1	0	0	0
234	235	-1	0	0	0
236	237	-1	0	0	0
238	239	-1	0	0	0
240	241	-1	0	0	0
242	243	-1	0	0	0
244	245	-1	0	0	0
246	247	-1	0	0	0
248	249	-1	0	0	0
250	251	-1	0	0	0
252	253	-1	0	0	0
254	255	-1	0	0	0
256	257	-1	0	0	0
258	259	-1	0	0	0
260	261	-1	0	0	0
262	263	-1	0	0	0
264	265	-1	0	0	0
266	267	-1	0	0	0
268	269	-1	0	0	0
270	271	-1	0	0	0
272	273	-1	0	0	0
274	275	-1	0	0	0
276	277	-1	0	0	0
278	279	-1	0	0	0
280	281	-1	0	0	0
282	283	-1	0	0	0
284	285	-1	0	0	0
286	287	-1	0	0	0
288	289	-1	0	0	0
290	291	-1	0	0	0
292	293	-1	0	0	0
294	295	-1	0	0	0
296	297	-1	0	0	0
298	299	-1	0	0	0
300	301	-1	0	0	0
302	303	-1	0	0	0
304	305	-1	0	0	0
306	307	-1	0	0	0
308	309	-1	0	0	0
310	311	-1	0	0	0
312	313	-1	0	0	0
314	315	-1	0	0	0
316	317	-1	0	0	0
318	319	-1	0	0	0
320	321	-1	0	0	0
322	323	-1	0	0	0
324	325	-1	0	0	0
326	327	-1	0	0	0
328	329	-1	0	0	0
330	331	-1	0	0	0
332	333	-1	0	0	0
334	335	-1	0	0	0
336	337	-1	0	0	0
338	339	-1	0	0	0
340	341	-1	0	0	0
342	343	-1	0	0	0
344	345	-1	0	0	0
346	347	-1	0	0	0
348	349	-1	0	0	0
350	351	-1	0	0	0
352	353	-1	0	0	0
354	355	-1	0	0	0
356	357	-1	0	0	0
358	359	-1	0	0	0
360	361	-1	0	0	0
362	363	-1	0	0	0
364	365	-1	0	0	0
366	367	-1	0	0	0
368	369	-1	0	0	0
370	371	-1	0	0	0
372	373	-1	0	0	0
374	375	-1	0	0	0
376	377	-1	0	0	0
378	379	-1	0	0	0
380	381	-1	0	0	0
382	383	-1	0	0	0
384	385	-1	0	0	0
386	387	-1	0	0	0
388	389	-1	0	0	0
390	391	-1	0	0	0
392	393	-1	0	0	0
394	395	-1	0	0	0
396	397	-1	0	0	0
398	399	-1	0	0	0
400	401	-1	0	0	0
402	403	-1	0	0	0
404	405	-1	0	0	0
406	407	-1	0	0	0
408	409	-1	0	0	0
410	411	-1	0	0	0
412	413	-1	0	0	0
[NumArcSegments] = 414
0	1	180	5	1	0	0	5
1	0	180	5	1	0	0	5
2	3	180	1	0	0	0	1
3	2	180	1	0	0	0	1
4	17	0.79718439176339573	1	0	0	0	1
5	161	0.79718439176337685	1	0	0	0	1
6	16	0.79718439176339573	1	0	0	0	1
7	160	0.79718439176337696	1	0	0	0	1
8	305	2.7653435596218019	1	0	0	0	1
9	361	2.7653435596217841	1	0	0	0	1
10	304	2.7653435596218015	1	0	0	0	1
11	360	2.7653435596217841	1	0	0	0	1
12	13	180	1	0	0	0	1
13	12	180	1	0	0	0	1
14	6	0.79718439176339573	1	0	0	0	1
15	4	0.79718439176339562	1	0	0	0	1
16	18	3.4056312164732097	1	0	0	0	1
17	19	3.4056312164732083	1	0	0	0	1
18	20	1.5943687835267912	1	0	0	0	1
19	21	1.5943687835267912	1	0	0	0	1
20	22	3.4056312164732097	1	0	0	0	1
21	23	3.4056312164732083	1	0	0	0	1
22	24	1.5943687835267901	1	0	0	0	1
23	25	1.5943687835267895	1	0	0	0	1
24	26	3.4056312164732123	1	0	0	0	1
25	27	3.4056312164732061	1	0	0	0	1
26	28	1.594368783526793	1	0	0	0	1
27	29	1.5943687835267899	1	0	0	0	1
28	30	3.4056312164732137	1	0	0	0	1
29	31	3.4056312164732021	1	0	0	0	1
30	32	1.5943687835267901	1	0	0	0	1
31	33	1.5943687835267899	1	0	0	0	1
32	34	3.4056312164732132	1	0	0	0	1
33	35	3.4056312164732079	1	0	0	0	1
34	36	1.5943687835267903	1	0	0	0	1
35	37	1.5943687835267868	1	0	0	0	1
36	38	3.4056312164732132	1	0	0	0	1
37	39	3.405631216473199	1	0	0	0	1
38	40	1.5943687835267963	1	0	0	0	1
39	41	1.5943687835267895	1	0	0	0	1
40	42	3.4056312164732008	1	0	0	0	1
41	43	3.4056312164732017	1	0	0	0	1
42	44	1.5943687835268028	1	0	0	0	1
43	45	1.594368783526793	1	0	0	0	1
44	46	3.4056312164732061	1	0	0	0	1
45	47	3.405631216473199	1	0	0	0	1
46	48	1.5943687835267966	1	0	0	0	1
47	49	1.5943687835267899	1	0	0	0	1
48	50	3.4056312164732101	1	0	0	0	1
49	51	3.4056312164731959	1	0	0	0	1
50	52	1.5943687835267968	1	0	0	0	1
51	53	1.5943687835267932	1	0	0	0	1
52	54	3.4056312164732092	1	0	0	0	1
53	55	3.4056312164731977	1	0	0	0	1
54	56	1.5943687835267968	1	0	0	0	1
55	57	1.5943687835267899	1	0	0	0	1
56	58	3.405631216473203	1	0	0	0	1
57	59	3.4056312164731919	1	0	0	0	1
58	60	1.5943687835268028	1	0	0	0	1
59	61	1.5943687835267963	1	0	0	0	1
60	62	3.4056312164732101	1	0	0	0	1
61	63	3.4056312164732021	1	0	0	0	1
62	64	1.5943687835267903	1	0	0	0	1
63	65	1.5943687835267895	1	0	0	0	1
64	66	3.4056312164732248	1	0	0	0	1
65	67	3.4056312164732017	1	0	0	0	1
66	68	1.5943687835267935	1	0	0	0	1
67	69	1.5943687835267839	1	0	0	0	1
68	70	3.4056312164732101	1	0	0	0	1
69	71	3.4056312164731919	1	0	0	0	1
70	72	1.5943687835267932	1	0	0	0	1
71	73	1.5943687835267901	1	0	0	0	1
72	74	3.4056312164732101	1	0	0	0	1
73	75	3.4056312164731888	1	0	0	0	1
74	76	1.5943687835267983	1	0	0	0	1
75	77	1.5943687835267899	1	0	0	0	1
76	78	3.4056312164732243	1	0	0	0	1
77	79	3.4056312164732012	1	0	0	0	1
78	80	1.5943687835267983	1	0	0	0	1
79	81	1.594368783526787	1	0	0	0	1
80	82	3.4056312164732243	1	0	0	0	1
81	83	3.4056312164732021	1	0	0	0	1
82	84	1.5943687835267999	1	0	0	0	1
83	85	1.5943687835267883	1	0	0	0	1
84	86	3.4056312164732141	1	0	0	0	1
85	87	3.405631216473191	1	0	0	0	1
86	88	1.5943687835267992	1	0	0	0	1
87	89	1.5943687835267879	1	0	0	0	1
88	90	3.4056312164732154	1	0	0	0	1
89	91	3.4056312164731897	1	0	0	0	1
90	92	1.5943687835267997	1	0	0	0	1
91	93	1.5943687835267881	1	0	0	0	1
92	94	3.405631216473227	1	0	0	0	1
93	95	3.4056312164732043	1	0	0	0	1
94	96	1.5943687835267997	1	0	0	0	1
95	97	1.5943687835267863	1	0	0	0	1
96	98	3.4056312164732301	1	0	0	0	1
97	99	3.4056312164732043	1	0	0	0	1
98	100	1.5943687835268043	1	0	0	0	1
99	101	1.5943687835267881	1	0	0	0	1
100	102	3.4056312164731999	1	0	0	0	1
101	103	3.4056312164731772	1	0	0	0	1
102	104	1.5943687835268061	1	0	0	0	1
103	105	1.5943687835267899	1	0	0	0	1
104	106	3.4056312164732288	1	0	0	0	1
105	107	3.4056312164731981	1	0	0	0	1
106	108	1.5943687835267935	1	0	0	0	1
107	109	1.5943687835267806	1	0	0	0	1
108	110	3.4056312164732407	1	0	0	0	1
109	111	3.4056312164732114	1	0	0	0	1
110	112	1.5943687835267684	1	0	0	0	1
111	113	1.5943687835267581	1	0	0	0	1
112	114	3.4056312164732758	1	0	0	0	1
113	115	3.405631216473243	1	0	0	0	1
114	116	1.5943687835267746	1	0	0	0	1
115	117	1.594368783526765	1	0	0	0	1
116	118	3.4056312164732443	1	0	0	0	1
117	119	3.4056312164732114	1	0	0	0	1
118	120	1.5943687835267715	1	0	0	0	1
119	121	1.5943687835267588	1	0	0	0	1
120	122	3.405631216473235	1	0	0	0	1
121	123	3.4056312164732181	1	0	0	0	1
122	124	1.5943687835267746	1	0	0	0	1
123	125	1.5943687835267646	1	0	0	0	1
124	126	3.4056312164732407	1	0	0	0	1
125	127	3.4056312164732119	1	0	0	0	1
126	128	1.5943687835267746	1	0	0	0	1
127	129	1.5943687835267615	1	0	0	0	1
128	130	3.4056312164732732	1	0	0	0	1
129	131	3.4056312164732434	1	0	0	0	1
130	132	1.5943687835267681	1	0	0	0	1
131	133	1.5943687835267615	1	0	0	0	1
132	134	3.4056312164732159	1	0	0	0	1
133	135	3.4056312164731883	1	0	0	0	1
134	136	1.5943687835267681	1	0	0	0	1
135	137	1.5943687835267553	1	0	0	0	1
136	138	3.4056312164732763	1	0	0	0	1
137	139	3.4056312164732403	1	0	0	0	1
138	140	1.5943687835267775	1	0	0	0	1
139	141	1.5943687835267677	1	0	0	0	1
140	142	3.4056312164732381	1	0	0	0	1
141	143	3.4056312164732119	1	0	0	0	1
142	144	1.5943687835267748	1	0	0	0	1
143	145	1.594368783526765	1	0	0	0	1
144	146	3.4056312164732692	1	0	0	0	1
145	147	3.405631216473243	1	0	0	0	1
146	148	1.5943687835267728	1	0	0	0	1
147	149	1.5943687835267588	1	0	0	0	1
148	150	3.4056312164732434	1	0	0	0	1
149	151	3.4056312164732163	1	0	0	0	1
150	152	1.5943687835267728	1	0	0	0	1
151	153	1.5943687835267633	1	0	0	0	1
152	154	3.4056312164732394	1	0	0	0	1
153	155	3.4056312164732154	1	0	0	0	1
154	156	1.5943687835267746	1	0	0	0	1
155	157	1.594368783526763	1	0	0	0	1
156	158	3.4056312164732394	1	0	0	0	1
157	159	3.4056312164732141	1	0	0	0	1
158	7	0.79718439176339406	1	0	0	0	1
159	5	0.79718439176338796	1	0	0	0	1
160	162	3.405631216473227	1	0	0	0	1
161	163	3.4056312164732248	1	0	0	0	1
162	164	1.5943687835267708	1	0	0	0	1