[Format]      =  4.0
[Frequency]   =  0
[Precision]   =  1e-008
[MinAngle]    =  30
[DoSmartMesh] =  1
[Depth]       =  140
[LengthUnits] =  millimeters
[ProblemType] =  planar
[Coordinates] =  cartesian
[ACSolver]    =  0
[PrevType]    =  0
[PrevSoln]    =  ""
[Comment]     =  "Add comments here."
[PointProps]   = 0
[BdryProps]   = 3
  <BeginBdry>
    <BdryName> = "A=0"
    <BdryType> = 0
    <A_0> = 0
    <A_1> = 0
    <A_2> = 0
    <Phi> = 0
    <c0> = 0
    <c0i> = 0
    <c1> = 0
    <c1i> = 0
    <Mu_ssd> = 0
    <Sigma_ssd> = 0
    <innerangle> = 0
    <outerangle> = 0
  <EndBdry>
  <BeginBdry>
    <BdryName> = "A=0"
    <BdryType> = 0
    <A_0> = 0
    <A_1> = 0
    <A_2> = 0
    <Phi> = 0
    <c0> = 0
    <c0i> = 0
    <c1> = 0
    <c1i> = 0
    <Mu_ssd> = 0
    <Sigma_ssd> = 0
    <innerangle> = 0
    <outerangle> = 0
  <EndBdry>
  <BeginBdry>
    <BdryName> = "A=0"
    <BdryType> = 0
    <A_0> = 0
    <A_1> = 0
    <A_2> = 0
    <Phi> = 0
    <c0> = 0
    <c0i> = 0
    <c1> = 0
    <c1i> = 0
    <Mu_ssd> = 0
    <Sigma_ssd> = 0
    <innerangle> = 0
    <outerangle> = 0
  <EndBdry>
[BlockProps]  = 10
  <BeginBlock>
    <BlockName> = "Aluminum, 1100"
    <Mu_x> = 1
    <Mu_y> = 1
    <H_c> = 0
    <H_cAngle> = 0
    <J_re> = 0
    <J_im> = 0
    <Sigma> = 34.450000000000003
    <d_lam> = 0
    <Phi_h> = 0
    <Phi_hx> = 0
    <Phi_hy> = 0
    <LamType> = 0
    <LamFill> = 1
    <NStrands> = 0
    <WireD> = 0
    <BHPoints> = 0
  <EndBlock>
  <BeginBlock>
    <BlockName> = "Air"
    <Mu_x> = 1
    <Mu_y> = 1
    <H_c> = 0
    <H_cAngle> = 0
    <J_re> = 0
    <J_im> = 0
    <Sigma> = 0
    <d_lam> = 0
    <Phi_h> = 0
    <Phi_hx> = 0
    <Phi_hy> = 0
    <LamType> = 0
    <LamFill> = 1
    <NStrands> = 0
    <WireD> = 0
    <BHPoints> = 0
  <EndBlock>
  <BeginBlock>
    <BlockName> = "18AWG 15% CCA"
    <Mu_x> = 1
    <Mu_y> = 1
    <H_c> = 0
    <H_cAngle> = 0
    <J_re> = 1
    <J_im> = 0
    <Sigma> = 38.526499999999999
    <d_lam> = 0
    <Phi_h> = 0
    <Phi_hx> = 0
    <Phi_hy> = 0
    <LamType> = 8
    <LamFill> = 1
    <NStrands> = 1
    <WireD> = 1.0236936312078153
    <BHPoints> = 0
  <EndBlock>
  <BeginBlock>
    <BlockName> = "E170"
    <Mu_x> = 1
    <Mu_y> = 1
    <H_c> = 0
    <H_cAngle> = 0
    <J_re> = 0
    <J_im> = 0
    <Sigma> = 0
    <d_lam> = 0.5
    <Phi_h> = 0
    <Phi_hx> = 0
    <Phi_hy> = 0
    <LamType> = 0
    <LamFill> = 0.97999999999999998
    <NStrands> = 0
    <WireD> = 0
    <BHPoints> = 101
      0	0
      0.032399999999999998	50
      0.064799999999999996	100
      0.097199999999999995	150
      0.12959999999999999	200
      0.16200000000000001	250
      0.19439999999999999	300
      0.2268	350
      0.25919999999999999	400
      0.29160000000000003	450
      0.32400000000000001	500
      0.35639999999999999	550
      0.38879999999999998	600
      0.42120000000000002	650
      0.4536	700
      0.48599999999999999	750
      0.51839999999999997	800
      0.55079999999999996	850
      0.58320000000000005	900
      0.61560000000000004	950
      0.64800000000000002	1000
      0.6804	1050
      0.71279999999999999	1100
      0.74519999999999997	1150
      0.77759999999999996	1200
      0.81000000000000005	1250
      0.84240000000000004	1300
      0.87480000000000002	1350
      0.90720000000000001	1400
      0.93959999999999999	1450
      0.97199999999999998	1500
      1.0044	1550
      1.0367999999999999	1600
      1.0691999999999999	1650
      1.1015999999999999	1700
      1.1339999999999999	1750
      1.1664000000000001	1800
      1.1988000000000001	1850
      1.2312000000000001	1900
      1.2636000000000001	1950
      1.296	2000
      1.3284	2050
      1.3608	2100
      1.3932	2150
      1.4256	2200
      1.458	2250
      1.4903999999999999	2300
      1.5227999999999999	2350
      1.5551999999999999	2400
      1.5875999999999999	2450
      1.6200000000000001	2500
      1.6240000000000001	2600
      1.6279999999999999	2700
      1.6319999999999999	2800
      1.6359999999999999	2900
      1.6399999999999999	3000
      1.6439999999999999	3100
      1.6479999999999999	3200
      1.6519999999999999	3300
      1.6559999999999999	3400
      1.6599999999999999	3500
      1.6639999999999999	3600
      1.6679999999999999	3700
      1.6719999999999999	3800
      1.6759999999999999	3900
      1.6799999999999999	4000
      1.6839999999999999	4100
      1.6879999999999999	4200
      1.6919999999999999	4300
      1.696	4400
      1.7	4500
      1.704	4600
      1.708	4700
      1.712	4800
      1.716	4900
      1.72	5000
      1.724	5200
      1.728	5400
      1.732	5600
      1.736	5800
      1.74	6000
      1.744	6200
      1.748	6400
      1.752	6600
      1.756	6800
      1.76	7000
      1.764	7200
      1.768	7400
      1.772	7600
      1.776	7800
      1.78	8000
      1.784	8200
      1.788	8400
      1.792	8600
      1.796	8800
      1.8	9000
      1.804	9200
      1.8080000000000001	9400
      1.8120000000000001	9600
      1.8160000000000001	9800
      1.8200000000000001	10000
  <EndBlock>
  <BeginBlock>
    <BlockName> = "Eixo"
    <Mu_x> = 100
    <Mu_y> = 1
    <H_c> = 0
    <H_cAngle> = 0
    <J_re> = 0
    <J_im> = 0
    <Sigma> = 0
    <d_lam> = 0
    <Phi_h> = 0
    <Phi_hx> = 0
    <Phi_hy> = 0
    <LamType> = 0
    <LamFill> = 1
    <NStrands> = 0
    <WireD> = 0
    <BHPoints> = 0
  <EndBlock>
  <BeginBlock>
    <BlockName> = "u1"
    <Mu_x> = 10.523809523809524
    <Mu_y> = 10.523809523809524
    <H_c> = 0
    <H_cAngle> = 0
    <J_re> = 0
    <J_im> = 0
    <Sigma> = 0
    <d_lam> = 0
    <Phi_h> = 0
    <Phi_hx> = 0
    <Phi_hy> = 0
    <LamType> = 0
    <LamFill> = 1
    <NStrands> = 0
    <WireD> = 0
    <BHPoints> = 0
  <EndBlock>
  <BeginBlock>
    <BlockName> = "u1"
    <Mu_x> = 10.523809523809524
    <Mu_y> = 10.523809523809524
    <H_c> = 0
    <H_cAngle> = 0
    <J_re> = 0
    <J_im> = 0
    <Sigma> = 0
    <d_lam> = 0
    <Phi_h> = 0
    <Phi_hx> = 0
    <Phi_hy> = 0
    <LamType> = 0
    <LamFill> = 1
    <NStrands> = 0
    <WireD> = 0
    <BHPoints> = 0
  <EndBlock>
  <BeginBlock>
    <BlockName> = "u1"
    <Mu_x> = 0.14531359011819187
    <Mu_y> = 0.14531359011819187
    <H_c> = 0
    <H_cAngle> = 0
    <J_re> = 0
    <J_im> = 0
    <Sigma> = 0
    <d_lam> = 0
    <Phi_h> = 0
    <Phi_hx> = 0
    <Phi_hy> = 0
    <LamType> = 0
    <LamFill> = 1
    <NStrands> = 0
    <WireD> = 0
    <BHPoints> = 0
  <EndBlock>
  <BeginBlock>
    <BlockName> = "u2"
    <Mu_x> = 32.14290974079077
    <Mu_y> = 32.14290974079077
    <H_c> = 0
    <H_cAngle> = 0
    <J_re> = 0
    <J_im> = 0
    <Sigma> = 0
    <d_lam> = 0
    <Phi_h> = 0
    <Phi_hx> = 0
    <Phi_hy> = 0
    <LamType> = 0
    <LamFill> = 1
    <NStrands> = 0
    <WireD> = 0
    <BHPoints> = 0
  <EndBlock>
  <BeginBlock>
    <BlockName> = "Pure Iron"
    <Mu_x> = 14872
    <Mu_y> = 14872
    <H_c> = 0
    <H_cAngle> = 0
    <J_re> = 0
    <J_im> = 0
    <Sigma> = 10.44
    <d_lam> = 0
    <Phi_h> = 0
    <Phi_hx> = 0
    <Phi_hy> = 0
    <LamType> = 0
    <LamFill> = 1
    <NStrands> = 0
    <WireD> = 0
    <BHPoints> = 21
      0	0
      0.22706499999999999	13.898400000000001
      0.45412999999999998	27.796700000000001
      0.68119499999999999	42.397399999999998
      0.90825999999999996	61.415700000000001
      1.13533	82.382400000000004
      1.36239	144.66900000000001
      1.58935	897.75999999999999
      1.81236	4581.7399999999998
      2.01004	17736.200000000001
      2.1331600000000002	41339.300000000003
      2.1999900000000001	68321.800000000003
      2.2547899999999998	95685.5
      2.2999299999999998	123355
      2.3425099999999999	151083
      2.3787600000000002	178954
      2.4150100000000001	206825
      2.45126	234696
      2.4874999999999998	262568
      2.5237500000000002	290439
      2.5600000000000001	318310
  <EndBlock>
[CircuitProps]  = 9
  <BeginCircuit>
    <CircuitName> = "A1"
    <TotalAmps_re> = 16.699999999999999
    <TotalAmps_im> = 0
    <CircuitType> = 1
  <EndCircuit>
  <BeginCircuit>
    <CircuitName> = "B1"
    <TotalAmps_re> = -8.3499999999999996
    <TotalAmps_im> = 0
    <CircuitType> = 1
  <EndCircuit>
  <BeginCircuit>
    <CircuitName> = "C1"
    <TotalAmps_re> = -8.3499999999999996
    <TotalAmps_im> = 0
    <CircuitType> = 1
  <EndCircuit>
  <BeginCircuit>
    <CircuitName> = "A2"
    <TotalAmps_re> = 16.699999999999999
    <TotalAmps_im> = 0
    <CircuitType> = 1
  <EndCircuit>
  <BeginCircuit>
    <CircuitName> = "A3"
    <TotalAmps_re> = 16.699999999999999
    <TotalAmps_im> = 0
    <CircuitType> = 1
  <EndCircuit>
  <BeginCircuit>
    <CircuitName> = "B2"
    <TotalAmps_re> = -8.3499999999999996
    <TotalAmps_im> = 0
    <CircuitType> = 1
  <EndCircuit>
  <BeginCircuit>
    <CircuitName> = "B3"
    <TotalAmps_re> = -8.3499999999999996
    <TotalAmps_im> = 0
    <CircuitType> = 1
  <EndCircuit>
  <BeginCircuit>
    <CircuitName> = "C2"
    <TotalAmps_re> = -8.3499999999999996
    <TotalAmps_im> = 0
    <CircuitType> = 1
  <EndCircuit>
  <BeginCircuit>
    <CircuitName> = "C3"
    <TotalAmps_re> = -8.3499999999999996
    <TotalAmps_im> = 0
    <CircuitType> = 1
  <EndCircuit>
[NumPoints] = 621
-4780.7771029971391	54.299630242982531	0	2
-4778.7248010369412	35.190487370511171	0	2
-4777.678102997138	56.900000000000112	0	2
-4774.5791029971397	54.299630242982289	0	2
-4776.6314049573384	35.19048737051093	0	2
-4786.7393776854651	53.627856068906482	0	2
-4784.4881210315534	34.54112957810716	0	2
-4790.3393081406603	55.473452067756902	0	2
-4792.7819867525286	52.248697027086621	0	2
-4786.5290332825316	34.07531380990882	0	2
-4804.0299321177354	47.577670681986142	0	2
-4793.889725584444	31.25138830912055	0	2
-4802.3660877490938	51.265128585494473	0	2
-4798.445727074276	50.266882096618303	0	2
-4792.0036408884644	32.15967882745143	0	2
-4809.1102841035481	44.3854890298458	0	2
-4798.800551688586	28.165726325408901	0	2
-4813.1544834631668	44.486362281374518	0	2
-4813.9560920722633	40.52111985359911	0	2
-4800.4372402016897	26.860522181541079	0	2
-4829.8889139451312	-15.23433180935902	0	2
-4811.7312046448042	-8.9360084117293574	0	2
-4833.1197597067221	-12.79971489123313	0	2
-4831.2831605689598	-9.1951861452829302	0	2
-4812.2021162963547	-6.8962659371678008	0	2
-4827.8931373324885	-20.892677478584812	0	2
-4809.8020249511983	-14.405541171721071	0	2
-4828.8816226811377	-24.815510713469589	0	2
-4825.1900347770943	-26.47017159108713	0	2
-4808.8890426517091	-16.289359227403882	0	2
-4818.1084893835368	-36.379080556978373	0	2
-4804.4816986964424	-22.826152451715782	0	2
-4822.0757215234207	-35.587377947732683	0	2
-4821.9849492872281	-31.542939263026579	0	2
-4805.7909865255997	-21.19272889166897	0	2
-4813.8552926123939	-40.611138829962933	0	2
-4800.370426527089	-26.916991491857331	0	2
-4813.0438335863137	-44.57437716776284	0	2
-4808.9998973630827	-44.463455142645977	0	2
-4798.730499876584	-28.218124739092431	0	2
-4822.0634583042192	31.432369935925241	0	2
-4805.8437394607672	21.122568517095289	0	2
-4822.1643143504543	35.476569724653039	0	2
-4818.1990685124201	36.27816146435741	0	2
-4804.5385283539254	22.759251477436511	0	2
-4825.2556615697449	26.35203153070097	0	2
-4808.9294223366469	16.211755540371989	0	2
-4828.9431265517351	24.688202849677179	0	2
-4827.9448967413109	20.767837928041001	0	2
-4809.8377208789661	14.325674708563019	0	2
-4831.3059205160544	9.0615028379744604	0	2
-4812.2192036029801	6.8101649831578834	0	2
-4833.1515011996553	12.661441144880961	0	2
-4829.9267357670906	15.104106037608	0	2
-4811.7533791521037	8.8510752523922136	0	2
-4831.9777200555127	3.099231007640832	0	2
-4812.8685859143498	1.0468477511705121	0	2
-4834.5781029966238	0.00024207045778169999	0	2
-4831.9777464237486	-3.0987689923025892	0	2
-4812.8685948203147	-1.046548328413279	0	2
-4798.3203309545934	-50.318506242505393	0	2
-4791.9234118970444	-32.195297055733043	0	2
-4802.2381904928134	-51.326524353445159	0	2
-4803.9112237128111	-47.643226413012123	0	2
-4793.8117553919674	-31.291711978787909	0	2
-4792.6521118072314	-52.286066075770997	0	2
-4786.4443351262607	-34.097201533541892	0	2
-4790.201427818376	-55.504741558012903	0	2
-4786.6060944403307	-53.650206097599003	0	2
-4784.4022717101452	-34.557944575446541	0	2
-4775.5652517729877	-20.893440590400829	0	2
-4775.5652517729877	-24.15000000000617	0	2
-4775.5652517729877	24.14999999999965	0	2
-4775.5652517729877	20.893440590400829	0	2
-4778.7909542212901	25.150000000000119	0	2
-4776.5652517729877	25.150000000000119	0	2
-4779.7909542212892	20.893440590400829	0	2
-4779.7909542212892	24.14999999999965	0	2
-4779.7909542212892	-24.14999999999965	0	2
-4779.7909542212892	-20.893440590400829	0	2
-4776.5652517729877	-25.150000000000119	0	2
-4778.7909542212901	-25.150000000000119	0	2
-4774.5791029971388	-54.299630242982531	0	2
-4776.6314049573366	-35.190487370511399	0	2
-4777.678102997138	-56.90000000000034	0	2
-4780.7771029971382	-54.299630242982289	0	2
-4778.7248010369403	-35.190487370511171	0	2
-4768.6168283088136	-53.627856068906482	0	2
-4770.8680849627262	-34.54112957810716	0	2
-4765.0168978536194	-55.473452067756902	0	2
-4762.5742192417501	-52.248697027086621	0	2
-4768.8271727117472	-34.07531380990882	0	2
-4751.3262738765416	-47.577670681986142	0	2
-4761.4664804098338	-31.251388309120781	0	2
-4752.9901182451849	-51.265128585494722	0	2
-4756.9104789200019	-50.266882096618303	0	2
-4763.3525651058126	-32.159678827451657	0	2
-4746.2459218907297	-44.3854890298458	0	2
-4756.5556543056919	-28.165726325408901	0	2
-4742.201722531112	-44.486362281374753	0	2
-4741.4001139220154	-40.52111985359911	0	2
-4754.918965792589	-26.860522181541079	0	2
-4725.4672920491485	15.234331809358791	0	2
-4743.6250013494746	8.9360084117293574	0	2
-4722.2364462875566	12.799714891232901	0	2
-4724.0730454253189	9.1951861452829302	0	2
-4743.1540896979232	6.8962659371678008	0	2
-4727.4630686617884	20.892677478584581	0	2
-4745.5541810430814	14.405541171720831	0	2
-4726.4745833131401	24.815510713469351	0	2
-4730.1661712171854	26.470171591086899	0	2
-4746.4671633425687	16.289359227403882	0	2
-4737.247716610741	36.379080556978117	0	2
-4750.8745072978372	22.826152451715782	0	2
-4733.2804844708562	35.587377947732463	0	2
-4733.3712567070497	31.542939263026579	0	2
-4749.5652194686782	21.19272889166897	0	2
-4741.5009133818849	40.611138829962933	0	2
-4754.9857794671889	26.9169914918571	0	2
-4742.3123724079642	44.574377167762613	0	2
-4746.3563086311942	44.463455142645977	0	2
-4756.6257061176939	28.21812473909219	0	2
-4733.2927476900577	-31.432369935925241	0	2
-4749.5124665335125	-21.12256851709553	0	2
-4733.1918916438226	-35.476569724653281	0	2
-4737.1571374818568	-36.27816146435741	0	2
-4750.8176776403552	-22.759251477436742	0	2
-4730.1005444245338	-26.352031530701211	0	2
-4746.4267836576309	-16.21175554037222	0	2
-4726.4130794425437	-24.688202849677179	0	2
-4727.411309252966	-20.767837928041232	0	2
-4745.5184851153126	-14.325674708563019	0	2
-4724.0502854782244	-9.0615028379744604	0	2
-4743.1370023912968	-6.8101649831581161	0	2
-4722.2047047946244	-12.661441144880961	0	2
-4725.4294702271873	-15.104106037608	0	2
-4743.6028268421742	-8.8510752523922136	0	2
-4723.3784859387652	-3.0992310076410652	0	2
-4742.487620079929	-1.0468477511705121	0	2
-4720.7781029976541	-0.00024207045778169999	0	2
-4723.3784595705301	3.0987689923025892	0	2
-4742.4876111739641	1.046548328413279	0	2
-4757.0358750396863	50.318506242505393	0	2
-4763.4327940972344	32.195297055733043	0	2
-4753.1180155014636	51.326524353444931	0	2
-4751.4449822814668	47.643226413011902	0	2
-4761.5444506023096	31.291711978787909	0	2
-4762.7040941870482	52.286066075770769	0	2
-4768.911870868018	34.097201533541671	0	2
-4765.1547781759027	55.504741558012668	0	2
-4768.7501115539471	53.650206097598769	0	2
-4770.9539342841317	34.557944575446307	0	2
-4838.8851757767561	-65.165129743237628	0	3
-4839.7052469057053	-66.585534604399115	0	3
-4835.0549535611608	-68.379067791670451	0	3
-4831.2247313455646	-71.593005840103487	0	3
-4832.4811532081576	-72.64726896160785	0	3
-4792.178102997088	-88.000000000085564	0	3
-4799.7579220941261	-88.000000000085564	0	3
-4791.678102997088	-89.500000000119343	0	3
-4791.678102997088	-88.500000000085564	0	3
-4763.678102997088	-89.500000000085564	0	3
-4763.678102997088	-88.500000000085564	0	3
-4755.5982839000471	-88.000000000085564	0	3
-4763.178102997088	-88.000000000085564	0	3
-4724.1314746485323	-71.593005840036909	0	3
-4722.8750527859447	-72.647268961537506	0	3
-4720.3012524329388	-68.379067791604086	0	3
-4716.4710302173426	-65.165129743170581	0	3
-4715.6509590883907	-66.585534604338349	0	3
-4716.4710302173426	65.165129742934724	0	3
-4715.6509590883907	66.585534604101326	0	3
-4720.3012524329388	68.379067791368215	0	3
-4724.1314746485323	71.593005839801037	0	3
-4722.8750527859447	72.647268961301663	0	3
-4763.178102997088	87.999999999880643	0	3
-4755.5982839000471	87.999999999880643	0	3
-4763.678102997088	89.499999999880643	0	3
-4763.678102997088	88.499999999880657	0	3
-4791.678102997088	89.499999999880643	0	3
-4791.678102997088	88.499999999880657	0	3
-4799.7579220941261	87.999999999880643	0	3
-4792.178102997088	87.999999999880643	0	3
-4831.2247313455646	71.593005839867615	0	3
-4832.4811532081558	72.647268961370813	0	3
-4835.0549535611608	68.379067791434593	0	3
-4838.8851757767561	65.165129743001771	0	3
-4839.7052469057053	66.585534604163485	0	3
-4789.22998583351	-57.451704436291351	0	3
-4789.1248299876843	-56.855335999657278	0	3
-4790.6099846008428	-57.752592826921379	0	3
-4794.1109123099104	-70.822269373859612	0	3
-4785.2518205655897	-58.709616090056826	0	3
-4786.4589560689537	-72.171515714358875	0	3
-4786.4725241250762	-57.937919333758892	0	3
-4786.3683352184762	-57.347034681951747	0	3
-4779.0781029970876	-58.584847355791247	0	3
-4779.0781029970894	-57.979278974742982	0	3
-4780.384887761591	-59.120798846804647	0	3
-4781.5631029971419	-72.599847356414543	0	3
-4774.9419409321326	-59.132847355791711	0	3
-4773.793102997086	-72.599847356432704	0	3
-4776.2781029970874	-58.584847355791247	0	3
-4776.2781029970874	-57.979278974747167	0	3
-4768.8836818690997	-57.937919333752362	0	3
-4768.9878707756861	-57.347034681943121	0	3
-4770.0775466369669	-58.692649310299771	0	3
-4768.8972499252777	-72.171515714344238	0	3
-4764.7151981984562	-57.75935697728918	0	3
-4761.2452936843156	-70.82226937387918	0	3
-4766.1262201606651	-57.451704436284842	0	3
-4766.2321131827848	-56.851155265109263	0	3
-4759.1281324160154	-55.560844823978492	0	3
-4759.3333445019916	-54.997029251501083	0	3
-4760.1728022104007	-56.511421197634313	0	3
-4756.6698562697966	-69.580556961062015	0	3
-4755.0539844066616	-54.661145637896261	0	3
-4749.3684446062334	-66.923060447418251	0	3
-4756.4969930778143	-54.603188422667209	0	3
-4756.6937781453216	-54.06252589320448	0	3
-4749.7619086974037	-51.495582159382877	0	3
-4750.0619086973957	-50.975966917108387	0	3
-4750.625641755234	-52.613122148048021	0	3
-4744.9064818255438	-64.875428193988867	0	3
-4745.9058872749829	-49.902083048180558	0	3
-4738.177464438083	-60.99042819397674	0	3
-4747.3370375668073	-50.095582159383113	0	3
-4747.6370375668057	-49.575966917112119	0	3
-4741.0929512218627	-45.77849942145717	0	3
-4741.5182691122536	-45.271625297617518	0	3
-4741.7495034512449	-47.029047138078489	0	3
-4733.9879033128973	-58.11193950235343	0	3
-4737.5722196460574	-43.539618049279433	0	3
-4728.0357379898096	-53.117479775066357	0	3
-4738.9480267811286	-43.978694114334751	0	3
-4739.333699346942	-43.519067448463872	0	3
-4733.6994088828778	-38.730076216079411	0	3
-4734.1633011761132	-38.340824363927481	0	3
-4734.1288312765564	-40.07563440109498	0	3
-4724.5606232221953	-49.642365007428801	0	3
-4730.6209428010407	-35.913839860489936	0	3
-4719.566163494881	-43.690199684364373	0	3
-4731.8996035757564	-36.585151775345778	0	3
-4732.3634958689827	-36.195899923192449	0	3
-4727.6421369102618	-30.504859243243121	0	3
-4728.161752152525	-30.204859243229851	0	3
-4727.8313816860973	-31.904543792087239	0	3
-4716.747290875709	-39.664432372005543	0	3
-4725.0994739565103	-27.196837820823891	0	3
-4712.8622908756679	-32.935414984561852	0	3
-4726.2421369102622	-28.079988112646738	0	3
-4726.7665745119748	-27.77720392212423	0	3
-4723.1051824477718	-21.352767558509129	0	3
-4723.6689980202455	-21.147555472513542	0	3
-4723.0484994990193	-22.764049764439111	0	3
-4710.7853104230562	-28.481316030135961	0	3
-4721.1755801493082	-17.653473626240508	0	3
-4708.1278139093793	-21.179904366584381	0	3
-4722.1475260464613	-18.72162822030846	0	3
-4722.7165741855079	-18.514511635830971	0	3
-4720.2263985609452	-11.551882836535681	0	3
-4720.8172832127511	-11.447693929924281	0	3
-4719.9255101703147	-12.931881603868099	0	3
-4706.8558336233782	-16.432809312934641	0	3
-4718.9684869071789	-7.5737175686158	0	3
-4705.5065872828773	-8.7808530719791271	0	3
-4719.7401836634781	-8.7944211281012983	0	3
-4720.3310683152868	-8.6902322215005992	0	3
-4719.0932556414446	-1.40000000011234	0	3
-4719.6988240224937	-1.4000000001128059	0	3
-4718.5573041504322	-2.7067847646143051	0	3
-4705.078255640823	-3.8850000001665892	0	3
-4718.5452556414457	2.7361620648413649	0	3
-4705.078255640803	3.8849999998878921	0	3
-4719.0932556414446	1.399999999887892	0	3
-4719.6932556414476	1.399999999887892	0	3
-4719.7401836634854	8.794421127875454	0	3
-4720.3365521001188	8.6892652820461667	0	3
-4718.9854536869361	7.6005563600083104	0	3
-4705.5065872828927	8.7808530716971713	0	3
-4719.9187460199473	12.96290479851875	0	3
-4706.8558336233573	16.432809312658499	0	3
-4720.2263985609516	11.5518828363103	0	3
-4720.817283212762	11.44769392970961	0	3
-4722.1172581732581	18.549970580959339	0	3
-4722.661788702776	18.351777676561031	0	3
-4721.1666817996029	17.50530078657356	0	3
-4708.097546036176	21.00824672717776	0	3
-4723.0169573593403	22.624118590313589	0	3
-4710.7550425498193	28.309658390741681	0	3
-4723.0749145745704	21.181109919160491	0	3
-4723.6387301470422	20.975897833164201	0	3
-4726.1825208378541	27.916194299571099	0	3
-4726.7325307252513	27.598645943020351	0	3
-4725.0649808491889	27.052461241741319	0	3
-4712.802674803248	32.771621171431498	0	3
-4727.7760199490567	31.772215721991032	0	3
-4716.6876748032591	39.500638558892419	0	3
-4727.5825208378546	30.341065430167951	0	3
-4728.1021360801251	30.041065430168171	0	3
-4731.8996035757791	36.585151775112259	0	3
-4732.4064776996329	36.159833884736408	0	3
-4730.6490558591577	35.928599545729242	0	3
-4719.5661634948838	43.690199684077292	0	3
-4734.1384849479573	40.105883350917949	0	3
-4724.5606232221699	49.64236500716499	0	3
-4733.6994088829024	38.730076215845422	0	3
-4734.1590355487733	38.344403650033641	0	3
-4738.9480267811578	43.978694114096797	0	3
-4739.337278633313	43.514801820861749	0	3
-4737.602468596142	43.549271720419753	0	3
-4728.035737989605	53.117479775023057	0	3
-4741.7642631367462	47.057160195934003	0	3
-4733.9879033128736	58.111939502093357	0	3
-4741.0929512218918	45.778499421219003	0	3
-4741.4786237877033	45.318872755347861	0	3
-4747.1732437539931	50.035966086713472	0	3
-4747.4760279445218	49.511528484996759	0	3
-4745.7735592051504	49.846721310876433	0	3
-4738.0136706252306	60.930812121264992	0	3
-4750.4812651764132	52.578629040464627	0	3
-4744.7426880126741	64.81581212130736	0	3
-4749.5981148845904	51.435966086713478	0	3
-4749.8981148845896	50.916350844443201	0	3
-4756.3253354387271	54.572920549202131	0	3
-4756.532452023208	54.003872410148027	0	3
-4754.9140532327983	54.629603497955827	0	3
-4749.1967869671007	66.892792573919408	0	3
-4760.0246293709961	56.502522847666746	0	3
-4756.4981986306539	69.550289087595075	0	3
-4758.9564747769282	55.53057695051411	0	3
-4759.1616868629226	54.966761378042541	0	3
-4766.1262201607015	57.451704436029409	0	3
-4766.2313760065199	56.855335999393027	0	3
-4764.7462213933686	57.752592826659452	0	3
-4761.2452936843019	70.82226937359745	0	3
-4770.1043854286208	58.709616089794892	0	3
-4768.8972499252577	72.171515714096742	0	3
-4768.8836818691352	57.937919333496708	0	3
-4768.9878707757362	57.347034681689593	0	3
-4776.2781029971247	58.584847355529092	0	3
-4776.2781029971247	57.979278974479882	0	3
-4774.9713182326223	59.120798846542719	0	3
-4773.7931029970696	72.599847356152353	0	3
-4780.4142650620779	59.132847355529549	0	3
-4781.5631029971237	72.599847356170073	0	3
-4779.078102997124	58.584847355529092	0	3
-4779.078102997124	57.984847355529318	0	3
-4786.4725241251117	57.93791933349042	0	3
-4786.3673682792887	57.341550896851921	0	3
-4785.2786593572446	58.692649310037837	0	3
-4786.4589560689328	72.171515714082048	0	3
-4790.6410077957553	57.759356977027259	0	3
-4794.110912309895	70.822269373617956	0	3
-4789.2299858335473	57.451704436022901	0	3
-4789.1257969269473	56.860819784215771	0	3
-4796.228073578196	55.560844823716558	0	3
-4796.029880673801	55.016314294195162	0	3
-4795.1834037838107	56.511421197372137	0	3
-4798.6863497244149	69.580556960799854	0	3
-4800.3022215875508	54.661145637634327	0	3
-4805.987761387978	66.923060447157241	0	3
-4798.8592129163981	54.60318842240504	0	3
-4798.6540008304019	54.039372849933223	0	3
-4805.5942972968087	51.495582159120943	0	3
-4805.2767489402577	50.945572271720621	0	3
-4804.7305642389792	52.613122147785852	0	3
-4810.4497241686686	64.875428193726933	0	3
-4809.4503187192277	49.90208304791863	0	3
-4817.1787415561303	60.990428193715047	0	3
-4808.019168427405	50.095582159121172	0	3
-4807.7191684274039	49.575966916850192	0	3
-4814.2632547723488	45.778499421195022	0	3
-4813.8379368819769	45.271625297343462	0	3
-4813.6067025429656	47.029047137816548	0	3
-4821.3683026813142	58.111939502091261	0	3
-4817.7839863481549	43.539618049017271	0	3
-4826.8544774022066	52.649467177054248	0	3
-4816.4081792130819	43.978694114072589	0	3
-4816.0225066472713	43.519067448201717	0	3
-4821.6567971113336	38.730076215817242	0	3
-4821.1929048181028	38.340824363661582	0	3
-4821.2273747176569	40.075634400833053	0	3
-4830.795582772017	49.642365007166873	0	3
-4824.7352631931708	35.913839860228009	0	3
-4835.7900424993304	43.690199684101742	0	3
-4823.456602418456	36.585151775083631	0	3
-4822.9969757525841	36.19947920927207	0	3
-4827.7140690839506	30.504859242980949	0	3
-4827.1896314822343	30.202075052460771	0	3
-4827.5248243081132	31.90454379182507	0	3
-4838.6089151185024	39.664432371743608	0	3
-4830.2567320377011	27.196837820561719	0	3
-4842.4939151185454	32.935414984300152	0	3
-4829.1140690839502	28.0799881123848	0	3
-4828.5944538416798	27.779988112384569	0	3
-4832.2510235464397	21.352767558247201	0	3
-4831.6819754073867	21.145650973767619	0	3
-4832.3077064951931	22.76404976417718	0	3
-4844.5708955711552	28.481316029873788	0	3
-4834.1806258449033	17.65347362597857	0	3
-4847.2283920848313	21.17990436632175	0	3
-4833.2086799477511	18.721628220046291	0	3
-4832.6448643752792	18.516416134051159	0	3
-4835.1298074332681	11.551882836273521	0	3
-4834.5334389966301	11.446726990451451	0	3
-4835.4306958238958	12.93188160360593	0	3
-4848.5003723708351	16.432809312672699	0	3
-4836.3877190870307	7.5737175683536337	0	3
-4849.8496187113333	8.7808530717174271	0	3
-4835.6160223307334	8.7944211278393638	0	3
-4835.0251376789238	8.6902322212384302	0	3
-4836.262950352766	1.3999999998504049	0	3
-4835.6573819717169	1.3999999998513371	0	3
-4836.7989018437802	2.706784764352371	0	3
-4850.2779503533893	3.8849999999046552	0	3
-4836.8109503527658	-2.7361620651033012	0	3
-4850.2779503534084	-3.885000000150058	0	3
-4836.262950352766	-1.4000000001498261	0	3
-4835.6629503527638	-1.4000000001498261	0	3
-4835.616022330727	-8.7944211281376194	0	3
-4835.0196538940927	-8.6892652823104282	0	3
-4836.3707523072744	-7.6005563602704802	0	3
-4849.8496187113187	-8.7808530719591076	0	3
-4835.4374599742641	-12.962904798780681	0	3
-4848.5003723708551	-16.43280931292113	0	3
-4835.1298074332599	-11.55188283657224	0	3
-4834.538922781453	-11.447693929972241	0	3
-4833.2389478209534	-18.549970581221508	0	3
-4832.6944172914345	-18.351777676828551	0	3
-4834.1895241946086	-17.505300786835711	0	3
-4847.2586599580363	-21.008246727439921	0	3
-4832.3392486348721	-22.624118590575758	0	3
-4844.601163444393	-28.309658391003381	0	3
-4832.281291419642	-21.18110991942266	0	3
-4831.7406288901802	-20.984324851914891	0	3
-4829.1736851563583	-27.916194299833268	0	3
-4828.654069914086	-27.616194299835598	0	3
-4830.2912251450243	-27.05246124200325	0	3
-4842.5535311909634	-32.771621171693432	0	3
-4827.5801860451556	-31.77221572225297	0	3
-4838.6685311909514	-39.500638559154361	0	3
-4827.7736851563577	-30.341065430429879	0	3
-4827.2786333476943	-30.05524713543511	0	3
-4823.4566024184323	-36.585151775374193	0	3
-4822.9969757525587	-36.199479209566597	0	3
-4824.7071501350538	-35.928599545991403	0	3
-4835.7900424993286	-43.690199684339227	0	3
-4821.2177210462551	-40.105883351179891	0	3
-4830.7955827720416	-49.64236500742647	0	3
-4821.65679711131	-38.730076216107591	0	3
-4821.197170445439	-38.344403650295803	0	3
-4816.4081792130546	-43.978694114358738	0	3
-4816.0189273609021	-43.514801821123918	0	3
-4817.7537373980713	-43.549271720681922	0	3
-4827.3204680044037	-53.117479775042632	0	3
-4813.5919428574653	-47.05716019619593	0	3
-4821.3683026813387	-58.111939502355057	0	3
-4814.2632547723197	-45.77849942148093	0	3
-4813.877582206509	-45.318872755610023	0	3
-4808.1829622402183	-50.035966086975421	0	3
-4807.8801780497142	-49.511528485250082	0	3
-4809.5826467890629	-49.84672131113836	0	3