[Format]      =  4.0
[Frequency]   =  0
[Precision]   =  1e-008
[MinAngle]    =  30
[DoSmartMesh] =  1
[Depth]       =  140
[LengthUnits] =  millimeters
[ProblemType] =  planar
[Coordinates] =  cartesian
[ACSolver]    =  0
[PrevType]    =  0
[PrevSoln]    =  ""
[Comment]     =  "Add comments here."
[PointProps]   = 0
[BdryProps]   = 1
  <BeginBdry>
    <BdryName> = "A=0"
    <BdryType> = 0
    <A_0> = 0
    <A_1> = 0
    <A_2> = 0
    <Phi> = 0
    <c0> = 0
    <c0i> = 0
    <c1> = 0
    <c1i> = 0
    <Mu_ssd> = 0
    <Sigma_ssd> = 0
    <innerangle> = 0
    <outerangle> = 0
  <EndBdry>
[BlockProps]  = 4
  <BeginBlock>
    <BlockName> = "M250-50A"
    <Mu_x> = 1
    <Mu_y> = 1
    <H_c> = 0
    <H_cAngle> = 0
    <J_re> = 0
    <J_im> = 0
    <Sigma> = 0
    <d_lam> = 0
    <Phi_h> = 0
    <Phi_hx> = 0
    <Phi_hy> = 0
    <LamType> = 0
    <LamFill> = 1
    <NStrands> = 0
    <WireD> = 0
    <BHPoints> = 11
      0	0
      0.40000000000000002	50
      0.84999999999999998	100
      1.1000000000000001	200
      1.3500000000000001	500
      1.52	1000
      1.5900000000000001	2500
      1.6899999999999999	5000
      1.8100000000000001	10000
      1.95	30000
      2.1000000000000001	100000
  <EndBlock>
  <BeginBlock>
    <BlockName> = "Aluminio"
    <Mu_x> = 1
    <Mu_y> = 1
    <H_c> = 0
    <H_cAngle> = 0
    <J_re> = 0
    <J_im> = 0
    <Sigma> = 35.399999999999999
    <d_lam> = 0
    <Phi_h> = 0
    <Phi_hx> = 0
    <Phi_hy> = 0
    <LamType> = 0
    <LamFill> = 1
    <NStrands> = 0
    <WireD> = 0
    <BHPoints> = 0
  <EndBlock>
  <BeginBlock>
    <BlockName> = "Cobre"
    <Mu_x> = 1
    <Mu_y> = 1
    <H_c> = 0
    <H_cAngle> = 0
    <J_re> = 0
    <J_im> = 0
    <Sigma> = 58
    <d_lam> = 0
    <Phi_h> = 0
    <Phi_hx> = 0
    <Phi_hy> = 0
    <LamType> = 0
    <LamFill> = 1
    <NStrands> = 0
    <WireD> = 0
    <BHPoints> = 0
  <EndBlock>
  <BeginBlock>
    <BlockName> = "Air"
    <Mu_x> = 1
    <Mu_y> = 1
    <H_c> = 0
    <H_cAngle> = 0
    <J_re> = 0
    <J_im> = 0
    <Sigma> = 0
    <d_lam> = 0
    <Phi_h> = 0
    <Phi_hx> = 0
    <Phi_hy> = 0
    <LamType> = 0
    <LamFill> = 1
    <NStrands> = 0
    <WireD> = 0
    <BHPoints> = 0
  <EndBlock>
[CircuitProps]  = 3
  <BeginCircuit>
    <CircuitName> = "PhaseA"
    <TotalAmps_re> = 9.7059737032819147
    <TotalAmps_im> = 0
    <CircuitType> = 1
  <EndCircuit>
  <BeginCircuit>
    <CircuitName> = "PhaseB"
    <TotalAmps_re> = -4.8529868516409573
    <TotalAmps_im> = -0
    <CircuitType> = 1
  <EndCircuit>
  <BeginCircuit>
    <CircuitName> = "PhaseC"
    <TotalAmps_re> = -4.8529868516409573
    <TotalAmps_im> = -0
    <CircuitType> = 1
  <EndCircuit>
[NumPoints] = 509
110	0	0	0
-110	0	0	0
91.400000000000006	0	0	0
-91.400000000000006	0	0	0
21	0	0	0
5.7272727272727275	20.203919102675059	0	0
5	21.166010488516726	0	0
5	25.170000000000002	0	0
-5	25.170000000000002	0	0
-5	21.166010488516726	0	0
-5.7272727272727275	20.203919102675059	0	0
-5.7272727272727275	-20.203919102675059	0	0
-5	-21.166010488516726	0	0
-5	-25.170000000000002	0	0
5	-25.170000000000002	0	0
5	-21.166010488516726	0	0
5.7272727272727275	-20.203919102675059	0	0
57.5	1.3999999999999999	0	0
58.100000000000001	1.3999999999999999	0	0
58.648000000000003	2.722	0	0
71.776508116436773	3.8702258648251813	0	0
71.776508116436773	-3.8702258648251813	0	0
76	0	0	0
58.648000000000003	-2.722	0	0
58.100000000000001	-1.3999999999999999	0	0
57.5	-1.3999999999999999	0	0
56.869553246935666	8.606039361631403	0	0
56.383338349468261	11.363501070065585	0	0
56.974223001275583	11.467689976665744	0	0
57.284334759050594	12.86476502750936	0	0
70.014004008624283	16.275288271303097	0	0
71.358119345796922	8.6524313961266639	0	0
74.845389228927814	13.197261502686706	0	0
58.229675438269368	7.5034716201109006	0	0
57.460437898742988	8.7102282682315622	0	0
54.511153895845666	18.35058857212568	0	0
53.553497494533801	20.981727910326221	0	0
54.117313067005348	21.186939996321623	0	0
54.180113993719495	22.61664067954306	0	0
66.124159817805278	28.185834279350715	0	0
68.77155022778571	20.912188907448744	0	0
71.416639179729046	25.993530892750822	0	0
56.042071653984429	17.500954051984579	0	0
55.074969468317214	18.555800658121083	0	0
50.496460717605231	27.537564434701782	0	0
49.096460717605225	29.962435565298211	0	0
49.616075959875886	30.262435565298212	0	0
49.429657881149765	31.68132114910124	0	0
60.225166491361605	39.239967975540587	0	0
64.095392356186792	32.536540140896172	0	0
65.817930687617348	37.999999999999993	0	0
52.15165788114976	26.966678850898756	0	0
51.016075959875891	27.837564434701783	0	0
44.947458132902391	35.887825336609438	0	0
43.147652825780078	38.032749777342573	0	0
43.607279491651468	38.418422343154496	0	0
43.177306626475065	39.783380707066016	0	0
52.49626195648262	49.101815101175546	0	0
57.471728421678613	43.172285066446207	0	0
58.219377677042331	48.851858336176981	0	0
46.67664237360858	35.6130347587263	0	0
45.407084798773781	36.273497902421362	0	0
38.03274977734258	43.147652825780078	0	0
35.887825336609446	44.947458132902391	0	0
36.273497902421369	45.407084798773781	0	0
35.613034758726307	46.67664237360858	0	0
43.172285066446214	57.471728421678613	0	0
49.101815101175553	52.49626195648262	0	0
48.851858336176988	58.219377677042331	0	0
39.783380707066023	43.177306626475065	0	0
38.418422343154504	43.607279491651468	0	0
29.962435565298222	49.096460717605218	0	0
27.537564434701792	50.496460717605224	0	0
27.837564434701793	51.016075959875884	0	0
26.966678850898766	52.151657881149752	0	0
32.536540140896186	64.095392356186778	0	0
39.239967975540601	60.225166491361598	0	0
38.000000000000007	65.817930687617334	0	0
31.681321149101251	49.429657881149758	0	0
30.262435565298222	49.616075959875879	0	0
20.981727910326228	53.553497494533786	0	0
18.350588572125687	54.511153895845666	0	0
18.55580065812109	55.074969468317207	0	0
17.500954051984586	56.042071653984422	0	0
20.912188907448755	68.77155022778571	0	0
28.185834279350718	66.124159817805278	0	0
25.99353089275083	71.416639179729032	0	0
22.616640679543067	54.180113993719488	0	0
21.18693999632163	54.117313067005341	0	0
11.36350107006559	56.383338349468261	0	0
8.6060393616314084	56.869553246935666	0	0
8.7102282682315657	57.460437898742988	0	0
7.503471620110906	58.229675438269368	0	0
8.6524313961266692	71.358119345796922	0	0
16.275288271303101	70.014004008624283	0	0
13.197261502686711	74.845389228927814	0	0
12.864765027509366	57.284334759050594	0	0
11.467689976665747	56.974223001275583	0	0
1.4000000000000035	57.5	0	0
-1.3999999999999964	57.5	0	0
-1.3999999999999964	58.100000000000001	0	0
-2.7219999999999964	58.648000000000003	0	0
-3.8702258648251768	71.776508116436773	0	0
3.8702258648251857	71.776508116436773	0	0
4.6536578367599419e-015	76	0	0
2.7220000000000035	58.648000000000003	0	0
1.4000000000000035	58.100000000000001	0	0
-8.6060393616314013	56.869553246935666	0	0
-11.363501070065583	56.383338349468261	0	0
-11.467689976665742	56.974223001275583	0	0
-12.864765027509359	57.284334759050594	0	0
-16.275288271303094	70.014004008624298	0	0
-8.6524313961266621	71.358119345796908	0	0
-13.197261502686704	74.845389228927814	0	0
-7.5034716201108989	58.229675438269368	0	0
-8.7102282682315604	57.460437898742988	0	0
-18.35058857212567	54.511153895845666	0	0
-20.98172791032621	53.553497494533801	0	0
-21.186939996321609	54.117313067005348	0	0
-22.616640679543046	54.180113993719495	0	0
-28.185834279350694	66.124159817805278	0	0
-20.91218890744873	68.77155022778571	0	0
-25.993530892750805	71.416639179729046	0	0
-17.500954051984564	56.042071653984429	0	0
-18.555800658121068	55.074969468317214	0	0
-27.537564434701771	50.496460717605231	0	0
-29.9624355652982	49.096460717605225	0	0
-30.262435565298201	49.616075959875886	0	0
-31.68132114910123	49.429657881149765	0	0
-39.23996797554058	60.225166491361612	0	0
-32.536540140896165	64.095392356186792	0	0
-37.999999999999986	65.817930687617348	0	0
-26.966678850898745	52.15165788114976	0	0
-27.837564434701772	51.016075959875891	0	0
-35.887825336609446	44.947458132902391	0	0
-38.03274977734258	43.147652825780078	0	0
-38.418422343154504	43.607279491651468	0	0
-39.783380707066023	43.177306626475065	0	0
-49.101815101175553	52.49626195648262	0	0
-43.172285066446214	57.471728421678613	0	0
-48.851858336176988	58.219377677042331	0	0
-35.613034758726307	46.67664237360858	0	0
-36.273497902421369	45.407084798773781	0	0
-43.147652825780071	38.032749777342588	0	0
-44.947458132902383	35.887825336609453	0	0
-45.407084798773774	36.273497902421376	0	0
-46.676642373608573	35.613034758726315	0	0
-57.471728421678598	43.172285066446221	0	0
-52.496261956482606	49.101815101175561	0	0
-58.219377677042317	48.851858336177003	0	0
-43.177306626475058	39.78338070706603	0	0
-43.607279491651461	38.418422343154511	0	0
-49.096460717605211	29.962435565298232	0	0
-50.496460717605217	27.537564434701803	0	0
-51.016075959875877	27.837564434701804	0	0
-52.151657881149752	26.966678850898777	0	0
-64.095392356186778	32.5365401408962	0	0
-60.225166491361591	39.239967975540615	0	0
-65.81793068761732	38.000000000000028	0	0
-49.429657881149744	31.681321149101262	0	0
-49.616075959875872	30.262435565298233	0	0
-53.553497494533786	20.981727910326232	0	0
-54.511153895845666	18.350588572125691	0	0
-55.074969468317214	18.555800658121093	0	0
-56.042071653984422	17.500954051984589	0	0
-68.77155022778571	20.912188907448758	0	0
-66.124159817805278	28.185834279350722	0	0
-71.416639179729032	25.993530892750833	0	0
-54.180113993719488	22.616640679543071	0	0
-54.117313067005334	21.186939996321634	0	0
-56.383338349468261	11.363501070065581	0	0
-56.869553246935666	8.6060393616313995	0	0
-57.460437898742988	8.7102282682315586	0	0
-58.229675438269368	7.5034716201108971	0	0
-71.358119345796908	8.6524313961266603	0	0
-70.014004008624298	16.275288271303094	0	0
-74.845389228927814	13.1972615026867	0	0
-57.284334759050594	12.864765027509357	0	0
-56.974223001275583	11.46768997666574	0	0
-57.5	1.400000000000007	0	0
-57.5	-1.3999999999999928	0	0
-58.100000000000001	-1.3999999999999928	0	0
-58.648000000000003	-2.7219999999999929	0	0
-71.776508116436773	-3.8702258648251724	0	0
-71.776508116436773	3.8702258648251902	0	0
-76	9.3073156735198839e-015	0	0
-58.648000000000003	2.7220000000000071	0	0
-58.100000000000001	1.400000000000007	0	0
-56.869553246935673	-8.6060393616313853	0	0
-56.383338349468268	-11.363501070065567	0	0
-56.97422300127559	-11.467689976665726	0	0
-57.284334759050601	-12.864765027509343	0	0
-70.014004008624312	-16.275288271303076	0	0
-71.358119345796922	-8.6524313961266408	0	0
-74.845389228927814	-13.197261502686683	0	0
-58.229675438269375	-7.5034716201108829	0	0
-57.460437898742995	-8.7102282682315444	0	0
-54.511153895845666	-18.350588572125677	0	0
-53.553497494533801	-20.981727910326217	0	0
-54.117313067005348	-21.18693999632162	0	0
-54.180113993719495	-22.61664067954306	0	0
-66.124159817805278	-28.185834279350708	0	0
-68.77155022778571	-20.912188907448744	0	0
-71.416639179729046	-25.993530892750819	0	0
-56.042071653984429	-17.500954051984571	0	0
-55.074969468317214	-18.555800658121079	0	0
-50.496460717605224	-27.537564434701792	0	0
-49.096460717605218	-29.962435565298222	0	0
-49.616075959875879	-30.262435565298222	0	0
-49.429657881149758	-31.681321149101251	0	0
-60.225166491361598	-39.239967975540601	0	0
-64.095392356186778	-32.536540140896186	0	0
-65.817930687617334	-38.000000000000007	0	0
-52.151657881149752	-26.966678850898766	0	0
-51.016075959875884	-27.837564434701793	0	0
-44.947458132902412	-35.887825336609417	0	0
-43.147652825780099	-38.032749777342552	0	0
-43.607279491651489	-38.418422343154482	0	0
-43.177306626475087	-39.783380707065994	0	0
-52.496261956482641	-49.101815101175525	0	0
-57.471728421678634	-43.172285066446186	0	0
-58.219377677042353	-48.85185833617696	0	0
-46.676642373608601	-35.613034758726279	0	0
-45.407084798773802	-36.273497902421347	0	0
-38.032749777342588	-43.147652825780071	0	0
-35.887825336609453	-44.947458132902383	0	0
-36.273497902421376	-45.407084798773774	0	0
-35.613034758726315	-46.676642373608573	0	0
-43.172285066446221	-57.471728421678598	0	0
-49.101815101175561	-52.496261956482606	0	0
-48.851858336177003	-58.219377677042317	0	0
-39.78338070706603	-43.177306626475058	0	0
-38.418422343154511	-43.607279491651461	0	0
-29.962435565298239	-49.096460717605204	0	0
-27.53756443470181	-50.49646071760521	0	0
-27.837564434701811	-51.01607595987587	0	0
-26.966678850898784	-52.151657881149745	0	0
-32.536540140896207	-64.095392356186764	0	0
-39.239967975540623	-60.225166491361584	0	0
-38.000000000000036	-65.81793068761732	0	0
-31.681321149101269	-49.429657881149737	0	0
-30.26243556529824	-49.616075959875864	0	0
-20.98172791032621	-53.553497494533801	0	0
-18.35058857212567	-54.511153895845666	0	0
-18.555800658121072	-55.074969468317214	0	0
-17.500954051984564	-56.042071653984429	0	0
-20.91218890744873	-68.77155022778571	0	0
-28.185834279350701	-66.124159817805278	0	0
-25.993530892750808	-71.416639179729046	0	0
-22.616640679543053	-54.180113993719495	0	0
-21.186939996321613	-54.117313067005348	0	0
-11.363501070065585	-56.383338349468261	0	0
-8.606039361631403	-56.869553246935666	0	0
-8.7102282682315622	-57.460437898742988	0	0
-7.5034716201109006	-58.229675438269368	0	0
-8.6524313961266639	-71.358119345796922	0	0
-16.275288271303097	-70.014004008624283	0	0
-13.197261502686706	-74.845389228927814	0	0
-12.86476502750936	-57.284334759050594	0	0
-11.467689976665744	-56.974223001275583	0	0
-1.4000000000000106	-57.5	0	0
1.3999999999999893	-57.5	0	0
1.3999999999999893	-58.100000000000001	0	0
2.7219999999999893	-58.648000000000003	0	0
3.8702258648251679	-71.776508116436773	0	0
-3.8702258648251946	-71.776508116436773	0	0
-1.3960973510279826e-014	-76	0	0
-2.7220000000000106	-58.648000000000003	0	0
-1.4000000000000106	-58.100000000000001	0	0
8.6060393616313817	-56.869553246935673	0	0
11.363501070065563	-56.383338349468268	0	0
11.467689976665723	-56.97422300127559	0	0
12.864765027509339	-57.284334759050601	0	0
16.275288271303069	-70.014004008624312	0	0
8.6524313961266373	-71.358119345796922	0	0
13.197261502686677	-74.845389228927814	0	0
7.5034716201108793	-58.229675438269375	0	0
8.7102282682315408	-57.460437898742995	0	0
18.350588572125698	-54.511153895845666	0	0
20.981727910326239	-53.553497494533786	0	0
21.186939996321637	-54.117313067005334	0	0
22.616640679543078	-54.18011399371948	0	0
28.185834279350729	-66.124159817805278	0	0
20.912188907448765	-68.77155022778571	0	0
25.993530892750844	-71.416639179729032	0	0
17.500954051984596	-56.042071653984429	0	0
18.555800658121097	-55.074969468317214	0	0
27.537564434701746	-50.496460717605238	0	0
29.962435565298176	-49.096460717605247	0	0
30.262435565298176	-49.616075959875914	0	0
31.681321149101205	-49.429657881149787	0	0
39.239967975540544	-60.225166491361634	0	0
32.536540140896129	-64.095392356186807	0	0
37.99999999999995	-65.817930687617363	0	0
26.96667885089872	-52.151657881149781	0	0
27.837564434701747	-51.016075959875906	0	0
35.887825336609438	-44.947458132902398	0	0
38.032749777342573	-43.147652825780085	0	0
38.418422343154496	-43.607279491651475	0	0
39.783380707066016	-43.177306626475072	0	0
49.101815101175546	-52.496261956482627	0	0
43.172285066446207	-57.47172842167862	0	0
48.851858336176981	-58.219377677042338	0	0
35.6130347587263	-46.676642373608587	0	0
36.273497902421362	-45.407084798773788	0	0
43.147652825780064	-38.032749777342595	0	0
44.947458132902376	-35.88782533660946	0	0
45.407084798773766	-36.273497902421383	0	0
46.676642373608573	-35.613034758726315	0	0
57.471728421678591	-43.172285066446229	0	0
52.496261956482599	-49.101815101175568	0	0
58.21937767704231	-48.85185833617701	0	0
43.177306626475058	-39.78338070706603	0	0
43.607279491651454	-38.418422343154518	0	0
49.096460717605233	-29.962435565298197	0	0
50.496460717605238	-27.537564434701768	0	0
51.016075959875899	-27.837564434701768	0	0
52.151657881149767	-26.966678850898742	0	0
64.095392356186792	-32.536540140896157	0	0
60.22516649136162	-39.239967975540573	0	0
65.817930687617348	-37.999999999999972	0	0
49.429657881149772	-31.681321149101226	0	0
49.616075959875893	-30.262435565298198	0	0
53.553497494533801	-20.981727910326214	0	0
54.511153895845666	-18.350588572125673	0	0
55.074969468317214	-18.555800658121075	0	0
56.042071653984429	-17.500954051984571	0	0
68.77155022778571	-20.912188907448737	0	0
66.124159817805278	-28.185834279350708	0	0
71.416639179729046	-25.993530892750815	0	0
54.180113993719495	-22.616640679543053	0	0
54.117313067005348	-21.186939996321616	0	0
56.383338349468261	-11.363501070065588	0	0
56.869553246935666	-8.6060393616314066	0	0
57.460437898742988	-8.7102282682315657	0	0
58.229675438269368	-7.5034716201109042	0	0
71.358119345796922	-8.6524313961266675	0	0
70.014004008624283	-16.275288271303101	0	0
74.845389228927814	-13.197261502686709	0	0
57.284334759050594	-12.864765027509364	0	0
56.974223001275583	-11.467689976665747	0	0
57	0.29999999999999999	0	0
54.399999999999999	3.0990000000000002	0	0
36.015500000000003	1.0155000000000001	0	0
36.015500000000003	-1.0155000000000001	0	0
54.399999999999999	-3.0990000000000002	0	0
57	-0.29999999999999999	0	0
55.637647274550844	12.391214861855374	0	0
55.504134714177056	12.976171609164467	0	0
52.346486048360589	15.126440407074973	0	0
34.886546212751831	9.0042419917242835	0	0
35.338486229617111	7.0241634020829995	0	0
53.72567079702182	9.0838372073720315	0	0
51.485390592173161	24.461082469330087	0	0
51.225060348702627	25.001663790071539	0	0
47.668100706366289	26.395377929624757	0	0
32.008235324865694	16.541473691543324	0	0
32.88945319901346	14.711605920833509	0	0
50.357312121416911	20.811172886365561	0	0
44.751441441235322	35.304369261207398	0	0
44.377347560120079	35.773468150688217	0	0
40.599437750300602	36.340740985283524	0	0
27.524897863039786	23.2492468292895	0	0
28.791205650614874	21.661347088396933	0	0
44.463827542221033	31.494949456946678	0	0
35.773468150688224	44.377347560120079	0	0
35.304369261207405	44.751441441235322	0	0
31.494949456946685	44.463827542221033	0	0
21.661347088396937	28.791205650614874	0	0
23.249246829289504	27.524897863039786	0	0
36.340740985283531	40.599437750300602	0	0
25.001663790071543	51.225060348702627	0	0
24.461082469330091	51.485390592173161	0	0
20.811172886365565	50.357312121416911	0	0
14.711605920833511	32.88945319901346	0	0
16.541473691543324	32.008235324865694	0	0
26.395377929624761	47.668100706366289	0	0
12.976171609164471	55.504134714177056	0	0
12.391214861855378	55.637647274550844	0	0
9.083837207372035	53.72567079702182	0	0
7.0241634020830013	35.338486229617111	0	0
9.0042419917242853	34.886546212751831	0	0
15.126440407074977	52.346486048360589	0	0
0.30000000000000349	57	0	0
-0.29999999999999649	57	0	0
-3.0989999999999966	54.399999999999999	0	0
-1.0154999999999978	36.015500000000003	0	0
1.0155000000000023	36.015500000000003	0	0
3.0990000000000038	54.399999999999999	0	0
-12.391214861855371	55.637647274550844	0	0
-12.976171609164464	55.504134714177056	0	0
-15.12644040707497	52.346486048360589	0	0
-9.0042419917242817	34.886546212751831	0	0
-7.0241634020829977	35.338486229617111	0	0
-9.0838372073720279	53.72567079702182	0	0
-24.461082469330083	51.485390592173161	0	0
-25.001663790071536	51.225060348702627	0	0
-26.395377929624757	47.668100706366289	0	0
-16.54147369154332	32.008235324865694	0	0
-14.711605920833506	32.88945319901346	0	0
-20.811172886365561	50.357312121416911	0	0
-35.304369261207398	44.751441441235329	0	0
-35.773468150688217	44.377347560120086	0	0
-36.340740985283524	40.599437750300609	0	0
-23.2492468292895	27.52489786303979	0	0
-21.661347088396933	28.791205650614877	0	0
-31.494949456946678	44.46382754222104	0	0
-44.377347560120057	35.773468150688245	0	0
-44.751441441235301	35.304369261207427	0	0
-44.463827542221019	31.494949456946699	0	0
-28.791205650614863	21.661347088396951	0	0
-27.524897863039776	23.249246829289518	0	0
-40.599437750300588	36.340740985283546	0	0
-51.22506034870262	25.001663790071547	0	0
-51.485390592173154	24.461082469330094	0	0
-50.357312121416903	20.811172886365569	0	0
-32.88945319901346	14.711605920833513	0	0
-32.008235324865694	16.541473691543327	0	0
-47.668100706366282	26.395377929624765	0	0
-55.504134714177056	12.976171609164449	0	0
-55.637647274550844	12.391214861855357	0	0
-53.725670797021827	9.0838372073720137	0	0
-35.338486229617118	7.0241634020829888	0	0
-34.886546212751838	9.0042419917242729	0	0
-52.346486048360596	15.126440407074959	0	0
-57	0.30000000000000698	0	0
-57	-0.29999999999999299	0	0
-54.399999999999999	-3.0989999999999935	0	0
-36.015500000000003	-1.0154999999999956	0	0
-36.015500000000003	1.0155000000000045	0	0
-54.399999999999999	3.0990000000000069	0	0
-55.637647274550844	-12.391214861855342	0	0
-55.504134714177056	-12.976171609164435	0	0
-52.346486048360596	-15.126440407074945	0	0
-34.886546212751838	-9.004241991724264	0	0
-35.338486229617118	-7.02416340208298	0	0
-53.725670797021827	-9.0838372073719995	0	0
-51.485390592173161	-24.46108246933008	0	0
-51.225060348702627	-25.001663790071532	0	0
-47.668100706366289	-26.395377929624754	0	0
-32.008235324865694	-16.541473691543317	0	0
-32.88945319901346	-14.711605920833504	0	0
-50.357312121416911	-20.811172886365558	0	0
-44.751441441235308	-35.30436926120742	0	0
-44.377347560120064	-35.773468150688238	0	0
-40.599437750300595	-36.340740985283539	0	0
-27.524897863039779	-23.249246829289515	0	0
-28.791205650614867	-21.661347088396948	0	0
-44.463827542221026	-31.494949456946692	0	0
-35.773468150688231	-44.377347560120072	0	0
-35.304369261207412	-44.751441441235315	0	0
-31.494949456946692	-44.463827542221033	0	0
-21.661347088396941	-28.79120565061487	0	0
-23.249246829289508	-27.524897863039783	0	0
-36.340740985283539	-40.599437750300602	0	0
-25.00166379007155	-51.22506034870262	0	0
-24.461082469330098	-51.485390592173154	0	0
-20.811172886365572	-50.357312121416903	0	0
-14.711605920833515	-32.88945319901346	0	0
-16.541473691543327	-32.008235324865694	0	0
-26.395377929624768	-47.668100706366282	0	0
-12.976171609164478	-55.504134714177056	0	0
-12.391214861855385	-55.637647274550844	0	0
-9.0838372073720421	-53.72567079702182	0	0
-7.0241634020830066	-35.338486229617111	0	0
-9.0042419917242906	-34.886546212751831	0	0
-15.126440407074984	-52.346486048360589	0	0
-0.30000000000001048	-57	0	0
0.2999999999999895	-57	0	0
3.09899999999999	-54.399999999999999	0	0
1.0154999999999934	-36.015500000000003	0	0
-1.0155000000000067	-36.015500000000003	0	0
-3.0990000000000104	-54.399999999999999	0	0
12.391214861855314	-55.637647274550851	0	0
12.976171609164407	-55.504134714177063	0	0
15.126440407074918	-52.346486048360603	0	0
9.0042419917242462	-34.886546212751838	0	0
7.0241634020829622	-35.338486229617118	0	0
9.0838372073719729	-53.725670797021834	0	0
24.461082469330076	-51.485390592173168	0	0
25.001663790071529	-51.225060348702634	0	0
26.39537792962475	-47.668100706366296	0	0
16.541473691543317	-32.008235324865701	0	0
14.711605920833502	-32.889453199013467	0	0
20.811172886365554	-50.357312121416918	0	0
35.304369261207391	-44.751441441235329	0	0
35.77346815068821	-44.377347560120086	0	0
36.340740985283517	-40.599437750300609	0	0
23.249246829289497	-27.52489786303979	0	0
21.66134708839693	-28.791205650614877	0	0
31.494949456946671	-44.46382754222104	0	0
44.377347560120072	-35.773468150688231	0	0
44.751441441235315	-35.304369261207412	0	0
44.463827542221033	-31.494949456946692	0	0
28.79120565061487	-21.661347088396941	0	0
27.524897863039783	-23.249246829289508	0	0
40.599437750300602	-36.340740985283539	0	0
51.225060348702634	-25.001663790071504	0	0
51.485390592173168	-24.461082469330051	0	0
50.357312121416925	-20.811172886365529	0	0
32.889453199013467	-14.711605920833486	0	0
32.008235324865701	-16.541473691543299	0	0
47.668100706366303	-26.395377929624726	0	0
55.504134714177049	-12.976171609164481	0	0
55.637647274550837	-12.391214861855389	0	0
53.72567079702182	-9.0838372073720457	0	0
35.338486229617104	-7.0241634020830084	0	0
34.886546212751824	-9.0042419917242924	0	0
52.346486048360575	-15.126440407074988	0	0
[NumSegments] = 334
6	7	-1	0	0	0
7	8	-1	0	0	0
8	9	-1	0	0	0
12	13	-1	0	0	0
13	14	-1	0	0	0
14	15	-1	0	0	0
17	18	-1	0	0	0
18	19	-1	0	0	0
19	20	-1	0	0	0
21	23	-1	0	0	0
23	24	-1	0	0	0
24	25	-1	0	0	0
27	28	-1	0	0	0
28	29	-1	0	0	0
29	30	-1	0	0	0
31	33	-1	0	0	0
33	34	-1	0	0	0
34	26	-1	0	0	0
36	37	-1	0	0	0
37	38	-1	0	0	0
38	39	-1	0	0	0
40	42	-1	0	0	0
42	43	-1	0	0	0
43	35	-1	0	0	0
45	46	-1	0	0	0
46	47	-1	0	0	0
47	48	-1	0	0	0
49	51	-1	0	0	0
51	52	-1	0	0	0
52	44	-1	0	0	0
54	55	-1	0	0	0
55	56	-1	0	0	0
56	57	-1	0	0	0
58	60	-1	0	0	0
60	61	-1	0	0	0
61	53	-1	0	0	0
63	64	-1	0	0	0
64	65	-1	0	0	0
65	66	-1	0	0	0
67	69	-1	0	0	0
69	70	-1	0	0	0
70	62	-1	0	0	0
72	73	-1	0	0	0
73	74	-1	0	0	0
74	75	-1	0	0	0
76	78	-1	0	0	0
78	79	-1	0	0	0
79	71	-1	0	0	0
81	82	-1	0	0	0
82	83	-1	0	0	0
83	84	-1	0	0	0
85	87	-1	0	0	0
87	88	-1	0	0	0
88	80	-1	0	0	0
90	91	-1	0	0	0
91	92	-1	0	0	0
92	93	-1	0	0	0
94	96	-1	0	0	0
96	97	-1	0	0	0
97	89	-1	0	0	0
99	100	-1	0	0	0
100	101	-1	0	0	0
101	102	-1	0	0	0
103	105	-1	0	0	0
105	106	-1	0	0	0
106	98	-1	0	0	0
108	109	-1	0	0	0
109	110	-1	0	0	0
110	111	-1	0	0	0
112	114	-1	0	0	0
114	115	-1	0	0	0
115	107	-1	0	0	0
117	118	-1	0	0	0
118	119	-1	0	0	0
119	120	-1	0	0	0
121	123	-1	0	0	0
123	124	-1	0	0	0
124	116	-1	0	0	0
126	127	-1	0	0	0
127	128	-1	0	0	0
128	129	-1	0	0	0
130	132	-1	0	0	0
132	133	-1	0	0	0
133	125	-1	0	0	0
135	136	-1	0	0	0
136	137	-1	0	0	0
137	138	-1	0	0	0
139	141	-1	0	0	0
141	142	-1	0	0	0
142	134	-1	0	0	0
144	145	-1	0	0	0
145	146	-1	0	0	0
146	147	-1	0	0	0
148	150	-1	0	0	0
150	151	-1	0	0	0
151	143	-1	0	0	0
153	154	-1	0	0	0
154	155	-1	0	0	0
155	156	-1	0	0	0
157	159	-1	0	0	0
159	160	-1	0	0	0
160	152	-1	0	0	0
162	163	-1	0	0	0
163	164	-1	0	0	0
164	165	-1	0	0	0
166	168	-1	0	0	0
168	169	-1	0	0	0
169	161	-1	0	0	0
171	172	-1	0	0	0
172	173	-1	0	0	0
173	174	-1	0	0	0
175	177	-1	0	0	0
177	178	-1	0	0	0
178	170	-1	0	0	0
180	181	-1	0	0	0
181	182	-1	0	0	0
182	183	-1	0	0	0
184	186	-1	0	0	0
186	187	-1	0	0	0
187	179	-1	0	0	0
189	190	-1	0	0	0
190	191	-1	0	0	0
191	192	-1	0	0	0
193	195	-1	0	0	0
195	196	-1	0	0	0
196	188	-1	0	0	0
198	199	-1	0	0	0
199	200	-1	0	0	0
200	201	-1	0	0	0
202	204	-1	0	0	0
204	205	-1	0	0	0
205	197	-1	0	0	0
207	208	-1	0	0	0
208	209	-1	0	0	0
209	210	-1	0	0	0
211	213	-1	0	0	0
213	214	-1	0	0	0
214	206	-1	0	0	0
216	217	-1	0	0	0
217	218	-1	0	0	0
218	219	-1	0	0	0
220	222	-1	0	0	0
222	223	-1	0	0	0
223	215	-1	0	0	0
225	226	-1	0	0	0
226	227	-1	0	0	0
227	228	-1	0	0	0
229	231	-1	0	0	0
231	232	-1	0	0	0
232	224	-1	0	0	0
234	235	-1	0	0	0
235	236	-1	0	0	0
236	237	-1	0	0	0
238	240	-1	0	0	0
240	241	-1	0	0	0
241	233	-1	0	0	0
243	244	-1	0	0	0
244	245	-1	0	0	0
245	246	-1	0	0	0
247	249	-1	0	0	0
249	250	-1	0	0	0
250	242	-1	0	0	0
252	253	-1	0	0	0
253	254	-1	0	0	0
254	255	-1	0	0	0
256	258	-1	0	0	0
258	259	-1	0	0	0
259	251	-1	0	0	0
261	262	-1	0	0	0
262	263	-1	0	0	0
263	264	-1	0	0	0
265	267	-1	0	0	0
267	268	-1	0	0	0
268	260	-1	0	0	0
270	271	-1	0	0	0
271	272	-1	0	0	0
272	273	-1	0	0	0
274	276	-1	0	0	0
276	277	-1	0	0	0
277	269	-1	0	0	0
279	280	-1	0	0	0
280	281	-1	0	0	0
281	282	-1	0	0	0
283	285	-1	0	0	0
285	286	-1	0	0	0
286	278	-1	0	0	0
288	289	-1	0	0	0
289	290	-1	0	0	0
290	291	-1	0	0	0
292	294	-1	0	0	0
294	295	-1	0	0	0
295	287	-1	0	0	0
297	298	-1	0	0	0
298	299	-1	0	0	0
299	300	-1	0	0	0
301	303	-1	0	0	0
303	304	-1	0	0	0
304	296	-1	0	0	0
306	307	-1	0	0	0
307	308	-1	0	0	0
308	309	-1	0	0	0
310	312	-1	0	0	0
312	313	-1	0	0	0
313	305	-1	0	0	0
315	316	-1	0	0	0
316	317	-1	0	0	0
317	318	-1	0	0	0
319	321	-1	0	0	0
321	322	-1	0	0	0
322	314	-1	0	0	0
324	325	-1	0	0	0
325	326	-1	0	0	0
326	327	-1	0	0	0
328	330	-1	0	0	0
330	331	-1	0	0	0
331	323	-1	0	0	0
333	334	-1	0	0	0
334	335	-1	0	0	0
335	336	-1	0	0	0
337	339	-1	0	0	0
339	340	-1	0	0	0
340	332	-1	0	0	0
341	342	-1	0	0	0
342	343	-1	0	0	0
344	345	-1	0	0	0
345	346	-1	0	0	0
348	349	-1	0	0	0
349	350	-1	0	0	0
351	352	-1	0	0	0
352	347	-1	0	0	0
354	355	-1	0	0	0
355	356	-1	0	0	0
357	358	-1	0	0	0
358	353	-1	0	0	0
360	361	-1	0	0	0
361	362	-1	0	0	0
363	364	-1	0	0	0
364	359	-1	0	0	0
366	367	-1	0	0	0
367	368	-1	0	0	0
369	370	-1	0	0	0
370	365	-1	0	0	0
372	373	-1	0	0	0
373	374	-1	0	0	0
375	376	-1	0	0	0
376	371	-1	0	0	0
378	379	-1	0	0	0
379	380	-1	0	0	0
381	382	-1	0	0	0
382	377	-1	0	0	0
384	385	-1	0	0	0
385	386	-1	0	0	0
387	388	-1	0	0	0
388	383	-1	0	0	0
390	391	-1	0	0	0
391	392	-1	0	0	0
393	394	-1	0	0	0
394	389	-1	0	0	0
396	397	-1	0	0	0
397	398	-1	0	0	0
399	400	-1	0	0	0
400	395	-1	0	0	0
402	403	-1	0	0	0
403	404	-1	0	0	0
405	406	-1	0	0	0
406	401	-1	0	0	0
408	409	-1	0	0	0
409	410	-1	0	0	0
411	412	-1	0	0	0
412	407	-1	0	0	0
414	415	-1	0	0	0
415	416	-1	0	0	0
417	418	-1	0	0	0
418	413	-1	0	0	0
420	421	-1	0	0	0
421	422	-1	0	0	0
423	424	-1	0	0	0
424	419	-1	0	0	0
426	427	-1	0	0	0
427	428	-1	0	0	0
429	430	-1	0	0	0
430	425	-1	0	0	0
432	433	-1	0	0	0
433	434	-1	0	0	0
435	436	-1	0	0	0
436	431	-1	0	0	0
438	439	-1	0	0	0
439	440	-1	0	0	0
441	442	-1	0	0	0
442	437	-1	0	0	0
444	445	-1	0	0	0
445	446	-1	0	0	0
447	448	-1	0	0	0
448	443	-1	0	0	0
450	451	-1	0	0	0
451	452	-1	0	0	0
453	454	-1	0	0	0
454	449	-1	0	0	0
456	457	-1	0	0	0
457	458	-1	0	0	0
459	460	-1	0	0	0
460	455	-1	0	0	0
462	463	-1	0	0	0
463	464	-1	0	0	0
465	466	-1	0	0	0
466	461	-1	0	0	0
468	469	-1	0	0	0
469	470	-1	0	0	0
471	472	-1	0	0	0
472	467	-1	0	0	0
474	475	-1	0	0	0