[Format]      =  4.0
[Frequency]   =  0
[Precision]   =  1e-008
[MinAngle]    =  30
[DoSmartMesh] =  1
[Depth]       =  140
[LengthUnits] =  millimeters
[ProblemType] =  planar
[Coordinates] =  cartesian
[ACSolver]    =  0
[PrevType]    =  0
[PrevSoln]    =  ""
[Comment]     =  "Add comments here."
[PointProps]   = 0
[BdryProps]   = 1
  <BeginBdry>
    <BdryName> = "A=0"
    <BdryType> = 0
    <A_0> = 0
    <A_1> = 0
    <A_2> = 0
    <Phi> = 0
    <c0> = 0
    <c0i> = 0
    <c1> = 0
    <c1i> = 0
    <Mu_ssd> = 0
    <Sigma_ssd> = 0
    <innerangle> = 0
    <outerangle> = 0
  <EndBdry>
[BlockProps]  = 4
  <BeginBlock>
    <BlockName> = "M250-50A"
    <Mu_x> = 1
    <Mu_y> = 1
    <H_c> = 0
    <H_cAngle> = 0
    <J_re> = 0
    <J_im> = 0
    <Sigma> = 0
    <d_lam> = 0
    <Phi_h> = 0
    <Phi_hx> = 0
    <Phi_hy> = 0
    <LamType> = 0
    <LamFill> = 1
    <NStrands> = 0
    <WireD> = 0
    <BHPoints> = 11
      0	0
      0.40000000000000002	50
      0.84999999999999998	100
      1.1000000000000001	200
      1.3500000000000001	500
      1.52	1000
      1.5900000000000001	2500
      1.6899999999999999	5000
      1.8100000000000001	10000
      1.95	30000
      2.1000000000000001	100000
  <EndBlock>
  <BeginBlock>
    <BlockName> = "Aluminio"
    <Mu_x> = 1
    <Mu_y> = 1
    <H_c> = 0
    <H_cAngle> = 0
    <J_re> = 0
    <J_im> = 0
    <Sigma> = 35.399999999999999
    <d_lam> = 0
    <Phi_h> = 0
    <Phi_hx> = 0
    <Phi_hy> = 0
    <LamType> = 0
    <LamFill> = 1
    <NStrands> = 0
    <WireD> = 0
    <BHPoints> = 0
  <EndBlock>
  <BeginBlock>
    <BlockName> = "Cobre"
    <Mu_x> = 1
    <Mu_y> = 1
    <H_c> = 0
    <H_cAngle> = 0
    <J_re> = 0
    <J_im> = 0
    <Sigma> = 58
    <d_lam> = 0
    <Phi_h> = 0
    <Phi_hx> = 0
    <Phi_hy> = 0
    <LamType> = 0
    <LamFill> = 1
    <NStrands> = 0
    <WireD> = 0
    <BHPoints> = 0
  <EndBlock>
  <BeginBlock>
    <BlockName> = "Air"
    <Mu_x> = 1
    <Mu_y> = 1
    <H_c> = 0
    <H_cAngle> = 0
    <J_re> = 0
    <J_im> = 0
    <Sigma> = 0
    <d_lam> = 0
    <Phi_h> = 0
    <Phi_hx> = 0
    <Phi_hy> = 0
    <LamType> = 0
    <LamFill> = 1
    <NStrands> = 0
    <WireD> = 0
    <BHPoints> = 0
  <EndBlock>
[CircuitProps]  = 3
  <BeginCircuit>
    <CircuitName> = "PhaseA"
    <TotalAmps_re> = 9.7890779993735002
    <TotalAmps_im> = 0
    <CircuitType> = 1
  <EndCircuit>
  <BeginCircuit>
    <CircuitName> = "PhaseB"
    <TotalAmps_re> = -4.8945389996867501
    <TotalAmps_im> = -0
    <CircuitType> = 1
  <EndCircuit>
  <BeginCircuit>
    <CircuitName> = "PhaseC"
    <TotalAmps_re> = -4.8945389996867501
    <TotalAmps_im> = -0
    <CircuitType> = 1
  <EndCircuit>
[NumPoints] = 761
110	0	0	0
-110	0	0	0
91.400000000000006	0	0	0
-91.400000000000006	0	0	0
21	0	0	0
5.7272727272727275	20.203919102675059	0	0
5	21.166010488516726	0	0
5	25.170000000000002	0	0
-5	25.170000000000002	0	0
-5	21.166010488516726	0	0
-5.7272727272727275	20.203919102675059	0	0
-5.7272727272727275	-20.203919102675059	0	0
-5	-21.166010488516726	0	0
-5	-25.170000000000002	0	0
5	-25.170000000000002	0	0
5	-21.166010488516726	0	0
5.7272727272727275	-20.203919102675059	0	0
57.5	1.3999999999999999	0	0
58.100000000000001	1.3999999999999999	0	0
76	2.722	0	0
76	-2.722	0	0
58.100000000000001	-1.3999999999999999	0	0
57.5	-1.3999999999999999	0	0
57.403213180122094	3.6167826306619011	0	0
57.15917710042865	6.4061277853187883	0	0
57.756893919283698	6.4584212309673834	0	0
75.473559123213533	9.3354784170277512	0	0
75.948034986731784	3.9121944806162889	0	0
58.000929998977142	3.6690760763104961	0	0
56.869553246935666	8.606039361631403	0	0
56.383338349468261	11.363501070065585	0	0
56.974223001275583	11.467689976665744	0	0
74.372718889318435	15.877908206385936	0	0
75.318059568537194	10.516614798987476	0	0
57.460437898742988	8.7102282682315622	0	0
55.903081674764955	13.529798936590247	0	0
55.178388348477903	16.234391250199639	0	0
55.757943844251344	16.389682677261149	0	0
72.705857357200131	22.299497526950422	0	0
74.114868238738239	17.040997328632731	0	0
56.482637170538396	13.685090363651758	0	0
54.511153895845666	18.35058857212568	0	0
53.553497494533801	20.981727910326221	0	0
54.117313067005348	21.186939996321623	0	0
70.485660349596571	28.551374206530063	0	0
72.34761800986152	23.435687578971582	0	0
55.074969468317214	18.555800658121083	0	0
52.704363321044355	23.03171914823891	0	0
51.521032188170395	25.569380951941529	0	0
52.064816860392384	25.822951908985949	0	0
67.729024906327211	34.585957688606918	0	0
70.029758723243575	29.652018095979393	0	0
53.248147993266343	23.28529010528333	0	0
50.496460717605231	27.537564434701782	0	0
49.096460717605225	29.962435565298211	0	0
49.616075959875886	30.262435565298212	0	0
64.456930687617344	40.357321149101239	0	0
67.178930687617353	35.642678850898747	0	0
51.016075959875891	27.837564434701783	0	0
47.904249557508493	31.833832228180562	0	0
46.298235535725567	34.127457952189737	0	0
46.789726762298962	34.47160381400036	0	0
60.69428030621583	45.821541027234133	0	0
63.816830425710918	41.362077298124859	0	0
48.395740784081887	32.177978089991186	0	0
44.947458132902391	35.887825336609438	0	0
43.147652825780078	38.032749777342573	0	0
43.607279491651468	38.418422343154496	0	0
56.469709803475574	50.937031310346839	0	0
59.969045550609088	46.766685362007124	0	0
45.407084798773781	36.273497902421362	0	0
41.648589411887649	39.668690424565312	0	0
39.66869042456532	41.648589411887642	0	0
40.092954493277247	42.072853480599576	0	0
51.815370711787828	55.664860028567389	0	0
55.664860028567396	51.815370711787821	0	0
42.072853480599576	40.092954493277247	0	0
38.03274977734258	43.147652825780078	0	0
35.887825336609446	44.947458132902391	0	0
36.273497902421369	45.407084798773781	0	0
46.766685362007131	59.969045550609088	0	0
50.937031310346846	56.469709803475574	0	0
38.418422343154504	43.607279491651468	0	0
34.127457952189744	46.29823553572556	0	0
31.833832228180569	47.904249557508486	0	0
32.177978089991193	48.39574078408188	0	0
41.362077298124873	63.816830425710918	0	0
45.821541027234147	60.694280306215816	0	0
34.471603814000368	46.789726762298955	0	0
29.962435565298222	49.096460717605218	0	0
27.537564434701792	50.496460717605224	0	0
27.837564434701793	51.016075959875884	0	0
35.642678850898768	67.178930687617338	0	0
40.357321149101246	64.45693068761733	0	0
30.262435565298222	49.616075959875879	0	0
25.569380951941529	51.521032188170395	0	0
23.03171914823891	52.704363321044355	0	0
23.28529010528333	53.248147993266343	0	0
29.652018095979393	70.029758723243575	0	0
34.585957688606918	67.729024906327211	0	0
25.822951908985949	52.064816860392384	0	0
20.981727910326228	53.553497494533786	0	0
18.350588572125687	54.511153895845666	0	0
18.55580065812109	55.074969468317207	0	0
23.435687578971589	72.347618009861506	0	0
28.55137420653007	70.485660349596557	0	0
21.18693999632163	54.117313067005341	0	0
16.23439125019965	55.178388348477895	0	0
13.529798936590261	55.903081674764948	0	0
13.685090363651774	56.482637170538389	0	0
17.040997328632749	74.114868238738254	0	0
22.299497526950439	72.705857357200117	0	0
16.389682677261163	55.757943844251336	0	0
11.36350107006559	56.383338349468261	0	0
8.6060393616314084	56.869553246935666	0	0
8.7102282682315657	57.460437898742988	0	0
10.516614798987481	75.318059568537194	0	0
15.877908206385941	74.372718889318435	0	0
11.467689976665747	56.974223001275583	0	0
6.4061277853187866	57.15917710042865	0	0
3.6167826306618993	57.403213180122094	0	0
3.6690760763104944	58.000929998977142	0	0
3.9121944806162872	75.948034986731784	0	0
9.3354784170277494	75.473559123213533	0	0
6.4584212309673816	57.756893919283698	0	0
1.4000000000000035	57.5	0	0
-1.3999999999999964	57.5	0	0
-1.3999999999999964	58.100000000000001	0	0
-2.7219999999999955	76	0	0
2.7220000000000044	76	0	0
1.4000000000000035	58.100000000000001	0	0
-3.6167826306618922	57.403213180122094	0	0
-6.4061277853187795	57.15917710042865	0	0
-6.4584212309673745	57.756893919283698	0	0
-9.3354784170277405	75.473559123213533	0	0
-3.9121944806162774	75.948034986731784	0	0
-3.6690760763104873	58.000929998977142	0	0
-8.6060393616314013	56.869553246935666	0	0
-11.363501070065583	56.383338349468261	0	0
-11.467689976665742	56.974223001275583	0	0
-15.877908206385934	74.372718889318435	0	0
-10.516614798987474	75.318059568537194	0	0
-8.7102282682315604	57.460437898742988	0	0
-13.529798936590252	55.903081674764955	0	0
-16.234391250199643	55.178388348477903	0	0
-16.389682677261156	55.757943844251344	0	0
-22.299497526950429	72.705857357200117	0	0
-17.040997328632738	74.114868238738254	0	0
-13.685090363651765	56.482637170538396	0	0
-18.35058857212567	54.511153895845666	0	0
-20.98172791032621	53.553497494533801	0	0
-21.186939996321609	54.117313067005348	0	0
-28.551374206530049	70.485660349596571	0	0
-23.43568757897156	72.34761800986152	0	0
-18.555800658121068	55.074969468317214	0	0
-23.031719148238903	52.704363321044355	0	0
-25.569380951941522	51.521032188170395	0	0
-25.822951908985942	52.064816860392391	0	0
-34.585957688606911	67.729024906327226	0	0
-29.652018095979386	70.029758723243589	0	0
-23.285290105283323	53.24814799326635	0	0
-27.537564434701771	50.496460717605231	0	0
-29.9624355652982	49.096460717605225	0	0
-30.262435565298201	49.616075959875886	0	0
-40.357321149101224	64.456930687617344	0	0
-35.642678850898747	67.178930687617353	0	0
-27.837564434701772	51.016075959875891	0	0
-31.833832228180569	47.904249557508486	0	0
-34.127457952189744	46.29823553572556	0	0
-34.471603814000368	46.789726762298955	0	0
-45.821541027234147	60.694280306215816	0	0
-41.362077298124873	63.816830425710918	0	0
-32.177978089991193	48.39574078408188	0	0
-35.887825336609446	44.947458132902391	0	0
-38.03274977734258	43.147652825780078	0	0
-38.418422343154504	43.607279491651468	0	0
-50.937031310346846	56.469709803475574	0	0
-46.766685362007131	59.969045550609088	0	0
-36.273497902421369	45.407084798773781	0	0
-39.668690424565312	41.648589411887649	0	0
-41.648589411887642	39.66869042456532	0	0
-42.072853480599576	40.092954493277247	0	0
-55.664860028567389	51.815370711787828	0	0
-51.815370711787821	55.664860028567396	0	0
-40.092954493277247	42.072853480599576	0	0
-43.147652825780071	38.032749777342588	0	0
-44.947458132902383	35.887825336609453	0	0
-45.407084798773774	36.273497902421376	0	0
-59.969045550609074	46.766685362007145	0	0
-56.46970980347556	50.93703131034686	0	0
-43.607279491651461	38.418422343154511	0	0
-46.298235535725574	34.127457952189729	0	0
-47.9042495575085	31.833832228180555	0	0
-48.395740784081895	32.177978089991186	0	0
-63.816830425710933	41.362077298124852	0	0
-60.694280306215845	45.821541027234126	0	0
-46.789726762298969	34.47160381400036	0	0
-49.096460717605211	29.962435565298232	0	0
-50.496460717605217	27.537564434701803	0	0
-51.016075959875877	27.837564434701804	0	0
-67.178930687617324	35.64267885089879	0	0
-64.456930687617316	40.357321149101267	0	0
-49.616075959875872	30.262435565298233	0	0
-51.521032188170395	25.569380951941529	0	0
-52.704363321044355	23.03171914823891	0	0
-53.248147993266343	23.28529010528333	0	0
-70.029758723243575	29.6520180959794	0	0
-67.729024906327211	34.585957688606925	0	0
-52.064816860392384	25.822951908985949	0	0
-53.553497494533786	20.981727910326232	0	0
-54.511153895845666	18.350588572125691	0	0
-55.074969468317214	18.555800658121093	0	0
-72.347618009861506	23.435687578971592	0	0
-70.485660349596557	28.551374206530074	0	0
-54.117313067005334	21.186939996321634	0	0
-55.178388348477903	16.234391250199629	0	0
-55.903081674764955	13.529798936590236	0	0
-56.482637170538396	13.685090363651749	0	0
-74.114868238738239	17.040997328632717	0	0
-72.705857357200131	22.299497526950407	0	0
-55.757943844251344	16.389682677261142	0	0
-56.383338349468261	11.363501070065581	0	0
-56.869553246935666	8.6060393616313995	0	0
-57.460437898742988	8.7102282682315586	0	0
-75.318059568537194	10.516614798987471	0	0
-74.372718889318435	15.87790820638593	0	0
-56.974223001275583	11.46768997666574	0	0
-57.15917710042865	6.4061277853187901	0	0
-57.403213180122094	3.6167826306619029	0	0
-58.000929998977142	3.6690760763104979	0	0
-75.948034986731784	3.9121944806162916	0	0
-75.473559123213533	9.3354784170277547	0	0
-57.756893919283698	6.4584212309673852	0	0
-57.5	1.400000000000007	0	0
-57.5	-1.3999999999999928	0	0
-58.100000000000001	-1.3999999999999928	0	0
-76	-2.7219999999999906	0	0
-76	2.7220000000000093	0	0
-58.100000000000001	1.400000000000007	0	0
-57.403213180122094	-3.6167826306618878	0	0
-57.15917710042865	-6.406127785318775	0	0
-57.756893919283698	-6.4584212309673701	0	0
-75.473559123213533	-9.3354784170277352	0	0
-75.948034986731784	-3.9121944806162721	0	0
-58.000929998977142	-3.6690760763104828	0	0
-56.869553246935673	-8.6060393616313853	0	0
-56.383338349468268	-11.363501070065567	0	0
-56.97422300127559	-11.467689976665726	0	0
-74.372718889318435	-15.877908206385912	0	0
-75.318059568537194	-10.516614798987453	0	0
-57.460437898742995	-8.7102282682315444	0	0
-55.903081674764962	-13.529798936590224	0	0
-55.17838834847791	-16.234391250199614	0	0
-55.757943844251351	-16.389682677261128	0	0
-72.705857357200145	-22.299497526950393	0	0
-74.114868238738254	-17.040997328632702	0	0
-56.482637170538403	-13.685090363651737	0	0
-54.511153895845666	-18.350588572125677	0	0
-53.553497494533801	-20.981727910326217	0	0
-54.117313067005348	-21.18693999632162	0	0
-70.485660349596571	-28.551374206530063	0	0
-72.34761800986152	-23.435687578971574	0	0
-55.074969468317214	-18.555800658121079	0	0
-52.704363321044369	-23.031719148238878	0	0
-51.521032188170409	-25.569380951941497	0	0
-52.064816860392405	-25.822951908985914	0	0
-67.72902490632724	-34.585957688606875	0	0
-70.029758723243603	-29.652018095979351	0	0
-53.248147993266365	-23.285290105283295	0	0
-50.496460717605224	-27.537564434701792	0	0
-49.096460717605218	-29.962435565298222	0	0
-49.616075959875879	-30.262435565298222	0	0
-64.45693068761733	-40.357321149101246	0	0
-67.178930687617338	-35.642678850898768	0	0
-51.016075959875884	-27.837564434701793	0	0
-47.904249557508507	-31.833832228180547	0	0
-46.298235535725581	-34.127457952189722	0	0
-46.789726762298976	-34.471603814000353	0	0
-60.694280306215852	-45.821541027234119	0	0
-63.81683042571094	-41.362077298124845	0	0
-48.395740784081902	-32.177978089991178	0	0
-44.947458132902412	-35.887825336609417	0	0
-43.147652825780099	-38.032749777342552	0	0
-43.607279491651489	-38.418422343154482	0	0
-56.469709803475595	-50.937031310346818	0	0
-59.96904555060911	-46.766685362007102	0	0
-45.407084798773802	-36.273497902421347	0	0
-41.648589411887656	-39.668690424565312	0	0
-39.668690424565327	-41.648589411887642	0	0
-40.092954493277254	-42.072853480599576	0	0
-51.815370711787843	-55.664860028567389	0	0
-55.664860028567411	-51.815370711787821	0	0
-42.072853480599584	-40.092954493277247	0	0
-38.032749777342588	-43.147652825780071	0	0
-35.887825336609453	-44.947458132902383	0	0
-36.273497902421376	-45.407084798773774	0	0
-46.766685362007145	-59.969045550609074	0	0
-50.93703131034686	-56.46970980347556	0	0
-38.418422343154511	-43.607279491651461	0	0
-34.127457952189715	-46.298235535725581	0	0
-31.83383222818054	-47.904249557508507	0	0
-32.177978089991171	-48.395740784081909	0	0
-41.362077298124838	-63.816830425710947	0	0
-45.821541027234112	-60.694280306215859	0	0
-34.471603814000346	-46.789726762298983	0	0
-29.962435565298239	-49.096460717605204	0	0
-27.53756443470181	-50.49646071760521	0	0
-27.837564434701811	-51.01607595987587	0	0
-35.642678850898797	-67.178930687617324	0	0
-40.357321149101274	-64.456930687617316	0	0
-30.26243556529824	-49.616075959875864	0	0
-25.569380951941557	-51.521032188170381	0	0
-23.031719148238938	-52.70436332104434	0	0
-23.285290105283359	-53.248147993266329	0	0
-29.652018095979436	-70.02975872324356	0	0
-34.58595768860696	-67.729024906327197	0	0
-25.822951908985978	-52.064816860392369	0	0
-20.98172791032621	-53.553497494533801	0	0
-18.35058857212567	-54.511153895845666	0	0
-18.555800658121072	-55.074969468317214	0	0
-23.435687578971567	-72.34761800986152	0	0
-28.551374206530049	-70.485660349596571	0	0
-21.186939996321613	-54.117313067005348	0	0
-16.234391250199632	-55.178388348477903	0	0
-13.52979893659024	-55.903081674764955	0	0
-13.685090363651753	-56.482637170538396	0	0
-17.040997328632724	-74.114868238738239	0	0
-22.299497526950415	-72.705857357200131	0	0
-16.389682677261145	-55.757943844251344	0	0
-11.363501070065585	-56.383338349468261	0	0
-8.606039361631403	-56.869553246935666	0	0
-8.7102282682315622	-57.460437898742988	0	0
-10.516614798987476	-75.318059568537194	0	0
-15.877908206385936	-74.372718889318435	0	0
-11.467689976665744	-56.974223001275583	0	0
-6.4061277853187928	-57.15917710042865	0	0
-3.6167826306619055	-57.403213180122094	0	0
-3.6690760763105006	-58.000929998977142	0	0
-3.912194480616296	-75.948034986731784	0	0
-9.3354784170277583	-75.473559123213533	0	0
-6.4584212309673878	-57.756893919283698	0	0
-1.4000000000000106	-57.5	0	0
1.3999999999999893	-57.5	0	0
1.3999999999999893	-58.100000000000001	0	0
2.7219999999999862	-76	0	0
-2.7220000000000137	-76	0	0
-1.4000000000000106	-58.100000000000001	0	0
3.6167826306618851	-57.403213180122094	0	0
6.4061277853187724	-57.15917710042865	0	0
6.4584212309673674	-57.756893919283698	0	0
9.3354784170277316	-75.473559123213533	0	0
3.9121944806162685	-75.948034986731784	0	0
3.6690760763104802	-58.000929998977142	0	0
8.6060393616313817	-56.869553246935673	0	0
11.363501070065563	-56.383338349468268	0	0
11.467689976665723	-56.97422300127559	0	0
15.877908206385907	-74.372718889318435	0	0
10.516614798987447	-75.318059568537194	0	0
8.7102282682315408	-57.460437898742995	0	0
13.52979893659022	-55.903081674764962	0	0
16.234391250199611	-55.17838834847791	0	0
16.389682677261124	-55.757943844251351	0	0
22.29949752695039	-72.705857357200145	0	0
17.040997328632699	-74.114868238738254	0	0
13.685090363651733	-56.482637170538403	0	0
18.350588572125698	-54.511153895845666	0	0
20.981727910326239	-53.553497494533786	0	0
21.186939996321637	-54.117313067005334	0	0
28.551374206530085	-70.485660349596557	0	0
23.435687578971603	-72.347618009861506	0	0
18.555800658121097	-55.074969468317214	0	0
23.031719148238874	-52.704363321044369	0	0
25.569380951941493	-51.521032188170409	0	0
25.822951908985914	-52.064816860392405	0	0
34.585957688606875	-67.72902490632724	0	0
29.652018095979351	-70.029758723243603	0	0
23.285290105283295	-53.248147993266365	0	0
27.537564434701746	-50.496460717605238	0	0
29.962435565298176	-49.096460717605247	0	0
30.262435565298176	-49.616075959875914	0	0
40.357321149101196	-64.456930687617358	0	0
35.642678850898704	-67.178930687617367	0	0
27.837564434701747	-51.016075959875906	0	0
31.833832228180562	-47.904249557508493	0	0
34.127457952189737	-46.298235535725567	0	0
34.47160381400036	-46.789726762298962	0	0
45.821541027234133	-60.69428030621583	0	0
41.362077298124859	-63.816830425710918	0	0
32.177978089991186	-48.395740784081887	0	0
35.887825336609438	-44.947458132902398	0	0
38.032749777342573	-43.147652825780085	0	0
38.418422343154496	-43.607279491651475	0	0
50.937031310346839	-56.469709803475581	0	0
46.766685362007124	-59.969045550609096	0	0
36.273497902421362	-45.407084798773788	0	0
39.668690424565305	-41.648589411887656	0	0
41.648589411887635	-39.668690424565327	0	0
42.072853480599569	-40.092954493277254	0	0
55.664860028567382	-51.815370711787843	0	0
51.815370711787814	-55.664860028567411	0	0
40.09295449327724	-42.072853480599584	0	0
43.147652825780064	-38.032749777342595	0	0
44.947458132902376	-35.88782533660946	0	0
45.407084798773766	-36.273497902421383	0	0
59.969045550609067	-46.766685362007152	0	0
56.469709803475553	-50.937031310346867	0	0
43.607279491651454	-38.418422343154518	0	0
46.298235535725553	-34.127457952189758	0	0
47.904249557508479	-31.833832228180583	0	0
48.395740784081873	-32.177978089991214	0	0
63.816830425710911	-41.362077298124895	0	0
60.694280306215809	-45.821541027234169	0	0
46.789726762298947	-34.471603814000389	0	0
49.096460717605233	-29.962435565298197	0	0
50.496460717605238	-27.537564434701768	0	0
51.016075959875899	-27.837564434701768	0	0
67.178930687617353	-35.642678850898733	0	0
64.456930687617344	-40.35732114910121	0	0
49.616075959875893	-30.262435565298198	0	0
51.521032188170381	-25.569380951941561	0	0
52.70436332104434	-23.031719148238942	0	0
53.248147993266329	-23.285290105283362	0	0
70.02975872324356	-29.652018095979436	0	0
67.729024906327197	-34.58595768860696	0	0
52.064816860392369	-25.822951908985981	0	0
53.553497494533801	-20.981727910326214	0	0
54.511153895845666	-18.350588572125673	0	0
55.074969468317214	-18.555800658121075	0	0
72.34761800986152	-23.435687578971574	0	0
70.485660349596571	-28.551374206530056	0	0
54.117313067005348	-21.186939996321616	0	0
55.178388348477903	-16.234391250199636	0	0
55.903081674764955	-13.529798936590243	0	0
56.482637170538396	-13.685090363651756	0	0
74.114868238738239	-17.040997328632727	0	0
72.705857357200131	-22.299497526950418	0	0
55.757943844251344	-16.389682677261149	0	0
56.383338349468261	-11.363501070065588	0	0
56.869553246935666	-8.6060393616314066	0	0
57.460437898742988	-8.7102282682315657	0	0
75.318059568537194	-10.516614798987479	0	0
74.372718889318435	-15.877908206385939	0	0
56.974223001275583	-11.467689976665747	0	0
57.15917710042865	-6.4061277853187972	0	0
57.403213180122094	-3.61678263066191	0	0
58.000929998977142	-3.669076076310505	0	0
75.948034986731784	-3.9121944806163005	0	0
75.473559123213533	-9.3354784170277636	0	0
57.756893919283698	-6.4584212309673923	0	0
57	0.16153846153846152	0	0
55.600000000000001	1.6686923076923077	0	0
45.700653846153848	0.54680769230769233	0	0
45.700653846153848	-0.54680769230769233	0	0
55.600000000000001	-1.6686923076923077	0	0
57	-0.16153846153846152	0	0
56.60387713347648	6.7102301102760356	0	0
56.564934513701679	7.0309514388307912	0	0
54.993474768714975	8.3583650841812762	0	0
45.301534241191447	6.0514259486919704	0	0
45.43335500912913	4.9657842515341217	0	0
55.395752030988632	5.0453137602106475	0	0
55.382342277516031	13.484148416960428	0	0
55.305024909053898	13.797837311821153	0	0
53.585020840781567	14.926154076343852	0	0
44.241816256821352	11.467800788119813	0	0
44.503535549065674	10.405963879016262	0	0
54.383709256995417	11.685747792432569	0	0
53.353208160975512	20.061437476067653	0	0
53.238643505161775	20.363519646781405	0	0
51.395176646031089	21.276286131301497	0	0
42.53695296753277	16.716949268818425	0	0
42.924754327462281	15.694401120952383	0	0
52.578629540587045	18.155777307828465	0	0
50.546064128486194	26.346185602350825	0	0
50.395922795979743	26.632256010638788	0	0
48.455875043922667	27.316162024440843	0	0
40.211805119101307	21.722326985886237	0	0
40.720033529635636	20.753978653831492	0	0
50.006835008714283	24.361054706826216	0	0
47.001844661179597	32.246747016108444	0	0
46.818316050697227	32.512634111243315	0	0
44.809977670545834	32.957706764623886	0	0
37.300278602934071	26.410944261079383	0	0
37.921522949416911	25.510916444047833	0	0
46.705828216828749	30.21109307188064	0	0
42.772232459776276	37.677078245020766	0	0
42.557992831729251	37.918904794429892	0	0
40.51064991945033	38.118653925886342	0	0
33.844830031823534	30.714430496678904	0	0
34.570031172762711	29.895847626929015	0	0
42.723745277176107	35.62058567049008	0	0
37.918904794429892	42.557992831729251	0	0
37.677078245020766	42.772232459776276	0	0
35.620585670490087	42.723745277176107	0	0
29.895847626929022	34.570031172762711	0	0
30.714430496678911	33.844830031823534	0	0
38.118653925886349	40.51064991945033	0	0
32.512634111243322	46.818316050697227	0	0
32.246747016108451	47.001844661179597	0	0
30.211093071880647	46.705828216828749	0	0
25.510916444047837	37.921522949416911	0	0
26.410944261079386	37.300278602934071	0	0
32.957706764623893	44.809977670545834	0	0
26.632256010638791	50.395922795979743	0	0
26.346185602350829	50.546064128486194	0	0
24.361054706826224	50.006835008714283	0	0
20.753978653831499	40.720033529635636	0	0
21.722326985886244	40.211805119101307	0	0
27.31616202444085	48.455875043922667	0	0
20.363519646781402	53.238643505161775	0	0
20.061437476067649	53.353208160975512	0	0
18.155777307828462	52.578629540587045	0	0
15.694401120952383	42.924754327462281	0	0
16.716949268818425	42.53695296753277	0	0
21.276286131301493	51.395176646031089	0	0
13.797837311821171	55.305024909053898	0	0
13.484148416960446	55.382342277516031	0	0
11.685747792432586	54.383709256995417	0	0
10.405963879016277	44.503535549065674	0	0
11.467800788119828	44.241816256821352	0	0
14.92615407634387	53.585020840781567	0	0
7.0309514388307894	56.564934513701679	0	0
6.7102301102760338	56.60387713347648	0	0
5.0453137602106457	55.395752030988625	0	0
4.96578425153412	45.43335500912913	0	0
6.0514259486919686	45.301534241191447	0	0
8.3583650841812744	54.993474768714982	0	0
0.16153846153845236	57	0	0
-0.16153846153847068	57	0	0
-1.6686923076923166	55.600000000000001	0	0
-0.54680769230769966	45.700653846153848	0	0
0.546807692307685	45.700653846153848	0	0
1.6686923076922988	55.600000000000001	0	0
-6.7102301102760267	56.60387713347648	0	0
-7.0309514388307823	56.564934513701679	0	0
-8.3583650841812673	54.993474768714982	0	0
-6.0514259486919624	45.301534241191447	0	0
-4.9657842515341137	45.43335500912913	0	0
-5.0453137602106386	55.395752030988625	0	0
-13.484148416960414	55.382342277516038	0	0
-13.797837311821139	55.305024909053905	0	0
-14.926154076343838	53.585020840781574	0	0
-11.467800788119803	44.241816256821359	0	0
-10.405963879016252	44.503535549065681	0	0
-11.685747792432554	54.383709256995424	0	0
-20.061437476067645	53.353208160975512	0	0
-20.363519646781398	53.238643505161775	0	0
-21.276286131301486	51.395176646031089	0	0
-16.716949268818418	42.53695296753277	0	0
-15.694401120952376	42.924754327462281	0	0
-18.155777307828455	52.578629540587045	0	0
-26.346185602350825	50.546064128486194	0	0
-26.632256010638788	50.395922795979743	0	0
-27.316162024440843	48.455875043922667	0	0
-21.722326985886237	40.211805119101307	0	0
-20.753978653831492	40.720033529635636	0	0
-24.361054706826216	50.006835008714283	0	0
-32.246747016108436	47.001844661179604	0	0
-32.512634111243308	46.818316050697234	0	0
-32.957706764623879	44.809977670545841	0	0
-26.410944261079376	37.300278602934071	0	0
-25.510916444047826	37.921522949416911	0	0
-30.211093071880637	46.705828216828756	0	0
-37.677078245020752	42.772232459776284	0	0
-37.918904794429878	42.557992831729258	0	0
-38.118653925886335	40.510649919450344	0	0
-30.714430496678894	33.844830031823548	0	0
-29.895847626929005	34.570031172762725	0	0
-35.620585670490073	42.723745277176121	0	0
-42.557992831729258	37.918904794429892	0	0
-42.772232459776284	37.677078245020766	0	0
-42.723745277176114	35.62058567049008	0	0
-34.570031172762718	29.895847626929015	0	0
-33.844830031823541	30.714430496678904	0	0
-40.510649919450337	38.118653925886342	0	0
-46.818316050697227	32.512634111243315	0	0
-47.001844661179597	32.246747016108444	0	0
-46.705828216828749	30.21109307188064	0	0
-37.921522949416911	25.510916444047833	0	0
-37.300278602934071	26.410944261079383	0	0
-44.809977670545834	32.957706764623886	0	0
-50.395922795979722	26.632256010638816	0	0
-50.546064128486172	26.346185602350854	0	0
-50.006835008714262	24.361054706826248	0	0
-40.720033529635614	20.753978653831517	0	0
-40.211805119101285	21.722326985886262	0	0
-48.455875043922646	27.316162024440874	0	0
-53.238643505161768	20.36351964678142	0	0
-53.353208160975505	20.061437476067667	0	0
-52.578629540587038	18.155777307828476	0	0
-42.924754327462274	15.694401120952396	0	0
-42.536952967532763	16.716949268818436	0	0
-51.395176646031082	21.276286131301507	0	0
-55.305024909053898	13.79783731182115	0	0
-55.382342277516031	13.484148416960425	0	0
-54.383709256995417	11.685747792432565	0	0
-44.503535549065674	10.405963879016261	0	0
-44.241816256821352	11.467800788119812	0	0
-53.585020840781567	14.926154076343849	0	0
-56.564934513701679	7.030951438830793	0	0
-56.60387713347648	6.7102301102760373	0	0
-55.395752030988632	5.0453137602106493	0	0
-45.43335500912913	4.9657842515341226	0	0
-45.301534241191447	6.0514259486919713	0	0
-54.993474768714975	8.358365084181278	0	0
-57	0.16153846153844317	0	0
-57	-0.16153846153847987	0	0
-55.600000000000001	-1.6686923076923257	0	0
-45.700653846153848	-0.54680769230770698	0	0
-45.700653846153848	0.54680769230767767	0	0
-55.600000000000001	1.6686923076922897	0	0
-56.60387713347648	-6.7102301102760231	0	0
-56.564934513701679	-7.0309514388307788	0	0
-54.993474768714982	-8.3583650841812638	0	0
-45.301534241191447	-6.0514259486919597	0	0
-45.43335500912913	-4.9657842515341111	0	0
-55.395752030988625	-5.045313760210635	0	0
-55.382342277516038	-13.48414841696041	0	0
-55.305024909053905	-13.797837311821135	0	0
-53.585020840781574	-14.926154076343835	0	0
-44.241816256821359	-11.467800788119801	0	0
-44.503535549065681	-10.40596387901625	0	0
-54.383709256995424	-11.685747792432551	0	0
-53.353208160975512	-20.061437476067653	0	0
-53.238643505161775	-20.363519646781405	0	0
-51.395176646031089	-21.276286131301497	0	0
-42.53695296753277	-16.716949268818425	0	0
-42.924754327462281	-15.694401120952383	0	0
-52.578629540587045	-18.155777307828465	0	0
-50.546064128486201	-26.346185602350797	0	0
-50.39592279597975	-26.632256010638759	0	0
-48.455875043922674	-27.316162024440818	0	0
-40.211805119101314	-21.72232698588622	0	0
-40.720033529635643	-20.753978653831474	0	0
-50.00683500871429	-24.361054706826192	0	0
-47.001844661179604	-32.246747016108429	0	0